version 2
run General-0-20160527-00:21:57-6140
attr configname General
attr datetime 20160527-00:21:57
attr experiment General
attr inifile omnetpp.ini
attr iterationvars ""
attr iterationvars2 $repetition=0
attr measurement ""
attr network CoverageNetwork502
attr processid 6140
attr repetition 0
attr replication #0
attr resultdir results
attr runnumber 0
attr seedset 0

scalar CoverageNetwork502.node1.netwl 	"Initial Power" 	180
scalar CoverageNetwork502.node2.netwl 	"Initial Power" 	180
scalar CoverageNetwork502.node3.netwl 	"Initial Power" 	180
scalar CoverageNetwork502.node4.netwl 	"Initial Power" 	180
scalar CoverageNetwork502.node5.netwl 	"Initial Power" 	180
scalar CoverageNetwork502.node6.netwl 	"Initial Power" 	180
scalar CoverageNetwork502.node7.netwl 	"Initial Power" 	180
scalar CoverageNetwork502.node8.netwl 	"Initial Power" 	180
scalar CoverageNetwork502.node9.netwl 	"Initial Power" 	180
scalar CoverageNetwork502.node10.netwl 	"Initial Power" 	180
scalar CoverageNetwork502.node11.netwl 	"Initial Power" 	180
scalar CoverageNetwork502.node12.netwl 	"Initial Power" 	180
scalar CoverageNetwork502.node13.netwl 	"Initial Power" 	180
scalar CoverageNetwork502.node14.netwl 	"Initial Power" 	180
scalar CoverageNetwork502.node15.netwl 	"Initial Power" 	180
scalar CoverageNetwork502.node16.netwl 	"Initial Power" 	180
scalar CoverageNetwork502.node17.netwl 	"Initial Power" 	180
scalar CoverageNetwork502.node18.netwl 	"Initial Power" 	180
scalar CoverageNetwork502.node19.netwl 	"Initial Power" 	180
scalar CoverageNetwork502.node20.netwl 	"Initial Power" 	180
scalar CoverageNetwork502.node21.netwl 	"Initial Power" 	180
scalar CoverageNetwork502.node22.netwl 	"Initial Power" 	180
scalar CoverageNetwork502.node23.netwl 	"Initial Power" 	180
scalar CoverageNetwork502.node24.netwl 	"Initial Power" 	180
scalar CoverageNetwork502.node25.netwl 	"Initial Power" 	180
scalar CoverageNetwork502.node26.netwl 	"Initial Power" 	180
scalar CoverageNetwork502.node27.netwl 	"Initial Power" 	180
scalar CoverageNetwork502.node28.netwl 	"Initial Power" 	180
scalar CoverageNetwork502.node29.netwl 	"Initial Power" 	180
scalar CoverageNetwork502.node30.netwl 	"Initial Power" 	180
scalar CoverageNetwork502.node31.netwl 	"Initial Power" 	180
scalar CoverageNetwork502.node32.netwl 	"Initial Power" 	180
scalar CoverageNetwork502.node33.netwl 	"Initial Power" 	180
scalar CoverageNetwork502.node34.netwl 	"Initial Power" 	180
scalar CoverageNetwork502.node35.netwl 	"Initial Power" 	180
scalar CoverageNetwork502.node36.netwl 	"Initial Power" 	180
scalar CoverageNetwork502.node37.netwl 	"Initial Power" 	180
scalar CoverageNetwork502.node38.netwl 	"Initial Power" 	180
scalar CoverageNetwork502.node39.netwl 	"Initial Power" 	180
scalar CoverageNetwork502.node40.netwl 	"Initial Power" 	180
scalar CoverageNetwork502.node41.netwl 	"Initial Power" 	180
scalar CoverageNetwork502.node42.netwl 	"Initial Power" 	180
scalar CoverageNetwork502.node43.netwl 	"Initial Power" 	180
scalar CoverageNetwork502.node44.netwl 	"Initial Power" 	180
scalar CoverageNetwork502.node45.netwl 	"Initial Power" 	180
scalar CoverageNetwork502.node46.netwl 	"Initial Power" 	180
scalar CoverageNetwork502.node47.netwl 	"Initial Power" 	180
scalar CoverageNetwork502.node48.netwl 	"Initial Power" 	180
scalar CoverageNetwork502.node49.netwl 	"Initial Power" 	180
scalar CoverageNetwork502.node50.netwl 	"Initial Power" 	180
scalar CoverageNetwork502.node51.netwl 	"Initial Power" 	180
scalar CoverageNetwork502.node52.netwl 	"Initial Power" 	180
scalar CoverageNetwork502.node53.netwl 	"Initial Power" 	180
scalar CoverageNetwork502.node54.netwl 	"Initial Power" 	180
scalar CoverageNetwork502.node55.netwl 	"Initial Power" 	180
scalar CoverageNetwork502.node56.netwl 	"Initial Power" 	180
scalar CoverageNetwork502.node57.netwl 	"Initial Power" 	180
scalar CoverageNetwork502.node58.netwl 	"Initial Power" 	180
scalar CoverageNetwork502.node59.netwl 	"Initial Power" 	180
scalar CoverageNetwork502.node60.netwl 	"Initial Power" 	180
scalar CoverageNetwork502.node61.netwl 	"Initial Power" 	180
scalar CoverageNetwork502.node62.netwl 	"Initial Power" 	180
scalar CoverageNetwork502.node63.netwl 	"Initial Power" 	180
scalar CoverageNetwork502.node64.netwl 	"Initial Power" 	180
scalar CoverageNetwork502.node65.netwl 	"Initial Power" 	180
scalar CoverageNetwork502.node66.netwl 	"Initial Power" 	180
scalar CoverageNetwork502.node67.netwl 	"Initial Power" 	180
scalar CoverageNetwork502.node68.netwl 	"Initial Power" 	180
scalar CoverageNetwork502.node69.netwl 	"Initial Power" 	180
scalar CoverageNetwork502.node70.netwl 	"Initial Power" 	180
scalar CoverageNetwork502.node71.netwl 	"Initial Power" 	180
scalar CoverageNetwork502.node72.netwl 	"Initial Power" 	180
scalar CoverageNetwork502.node73.netwl 	"Initial Power" 	180
scalar CoverageNetwork502.node74.netwl 	"Initial Power" 	180
scalar CoverageNetwork502.node75.netwl 	"Initial Power" 	180
scalar CoverageNetwork502.node76.netwl 	"Initial Power" 	180
scalar CoverageNetwork502.node77.netwl 	"Initial Power" 	180
scalar CoverageNetwork502.node78.netwl 	"Initial Power" 	180
scalar CoverageNetwork502.node79.netwl 	"Initial Power" 	180
scalar CoverageNetwork502.node80.netwl 	"Initial Power" 	180
scalar CoverageNetwork502.node81.netwl 	"Initial Power" 	180
scalar CoverageNetwork502.node1.nic.mac 	nbTxFrames 	37
scalar CoverageNetwork502.node1.nic.mac 	nbRxFrames 	2
scalar CoverageNetwork502.node1.nic.mac 	nbDroppedFrames 	0
scalar CoverageNetwork502.node1.nic.mac 	nbMissedAcks 	0
scalar CoverageNetwork502.node1.nic.mac 	nbRecvdAcks 	0
scalar CoverageNetwork502.node1.nic.mac 	nbTxAcks 	0
scalar CoverageNetwork502.node1.nic.mac 	nbDuplicates 	0
scalar CoverageNetwork502.node1.nic.mac 	meanBackoff 	0.0016439215686275
scalar CoverageNetwork502.node1.nic.mac 	nbBackoffs 	51
scalar CoverageNetwork502.node1.nic.mac 	backoffDurations 	0.08384
scalar CoverageNetwork502.node1.nic.phy 	nbFramesWithInterference 	7
scalar CoverageNetwork502.node1.nic.phy 	nbFramesWithoutInterference 	49
scalar CoverageNetwork502.node1.nic.phy 	nbFramesWithInterferencePartial 	0
scalar CoverageNetwork502.node1.nic.phy 	nbFramesWithoutInterferencePartial 	0
scalar CoverageNetwork502.node1.nic.phy 	nbFramesWithInterferenceDropped 	1
scalar CoverageNetwork502.node1.nic.phy 	nbFramesWithoutInterferenceDropped 	0
scalar CoverageNetwork502.node1.tranl 	nbAggrPktReceived 	0
scalar CoverageNetwork502.node1.tranl 	"nbAggrPktSentDown " 	0
scalar CoverageNetwork502.node1.appl 	"activity duration" 	-1
attr unit  s
scalar CoverageNetwork502.node1.appl 	firstPacketGeneration 	-1
attr unit  s
scalar CoverageNetwork502.node1.appl 	lastPacketReception 	-2
attr unit  s
scalar CoverageNetwork502.node1.appl 	nbPacketsSent 	0
scalar CoverageNetwork502.node1.appl 	nbPacketsReceived 	0
statistic CoverageNetwork502.node1.appl 	latency
field count 0
field mean nan
field stddev nan
field sum 0
field sqrsum 0
field min nan
field max nan
scalar CoverageNetwork502.node1.batteryStats 	nominal 	180
attr unit  mW-s
scalar CoverageNetwork502.node1.batteryStats 	total 	0.40203680000016
attr unit  mW-s
scalar CoverageNetwork502.node1.batteryStats 	lifetime 	-1
attr unit  s
scalar CoverageNetwork502.node1.batteryStats 	"Mean power consumption" 	1.868061854138
attr unit  mW
scalar CoverageNetwork502.node2.nic.mac 	nbTxFrames 	6
scalar CoverageNetwork502.node2.nic.mac 	nbRxFrames 	3
scalar CoverageNetwork502.node2.nic.mac 	nbDroppedFrames 	0
scalar CoverageNetwork502.node2.nic.mac 	nbMissedAcks 	0
scalar CoverageNetwork502.node2.nic.mac 	nbRecvdAcks 	0
scalar CoverageNetwork502.node2.nic.mac 	nbTxAcks 	0
scalar CoverageNetwork502.node2.nic.mac 	nbDuplicates 	0
scalar CoverageNetwork502.node2.nic.mac 	meanBackoff 	0.00128
scalar CoverageNetwork502.node2.nic.mac 	nbBackoffs 	7
scalar CoverageNetwork502.node2.nic.mac 	backoffDurations 	0.00896
scalar CoverageNetwork502.node2.nic.phy 	nbFramesWithInterference 	0
scalar CoverageNetwork502.node2.nic.phy 	nbFramesWithoutInterference 	6
scalar CoverageNetwork502.node2.nic.phy 	nbFramesWithInterferencePartial 	0
scalar CoverageNetwork502.node2.nic.phy 	nbFramesWithoutInterferencePartial 	0
scalar CoverageNetwork502.node2.nic.phy 	nbFramesWithInterferenceDropped 	0
scalar CoverageNetwork502.node2.nic.phy 	nbFramesWithoutInterferenceDropped 	0
scalar CoverageNetwork502.node2.tranl 	nbAggrPktReceived 	0
scalar CoverageNetwork502.node2.tranl 	"nbAggrPktSentDown " 	0
scalar CoverageNetwork502.node2.appl 	"activity duration" 	-1
attr unit  s
scalar CoverageNetwork502.node2.appl 	firstPacketGeneration 	-1
attr unit  s
scalar CoverageNetwork502.node2.appl 	lastPacketReception 	-2
attr unit  s
scalar CoverageNetwork502.node2.appl 	nbPacketsSent 	0
scalar CoverageNetwork502.node2.appl 	nbPacketsReceived 	0
statistic CoverageNetwork502.node2.appl 	latency
field count 0
field mean nan
field stddev nan
field sum 0
field sqrsum 0
field min nan
field max nan
scalar CoverageNetwork502.node2.batteryStats 	nominal 	180
attr unit  mW-s
scalar CoverageNetwork502.node2.batteryStats 	total 	0.40418944000004
attr unit  mW-s
scalar CoverageNetwork502.node2.batteryStats 	lifetime 	-1
attr unit  s
scalar CoverageNetwork502.node2.batteryStats 	"Mean power consumption" 	1.8780640844549
attr unit  mW
scalar CoverageNetwork502.node3.nic.mac 	nbTxFrames 	6
scalar CoverageNetwork502.node3.nic.mac 	nbRxFrames 	0
scalar CoverageNetwork502.node3.nic.mac 	nbDroppedFrames 	0
scalar CoverageNetwork502.node3.nic.mac 	nbMissedAcks 	0
scalar CoverageNetwork502.node3.nic.mac 	nbRecvdAcks 	0
scalar CoverageNetwork502.node3.nic.mac 	nbTxAcks 	0
scalar CoverageNetwork502.node3.nic.mac 	nbDuplicates 	0
scalar CoverageNetwork502.node3.nic.mac 	meanBackoff 	0.0012342857142857
scalar CoverageNetwork502.node3.nic.mac 	nbBackoffs 	7
scalar CoverageNetwork502.node3.nic.mac 	backoffDurations 	0.00864
scalar CoverageNetwork502.node3.nic.phy 	nbFramesWithInterference 	0
scalar CoverageNetwork502.node3.nic.phy 	nbFramesWithoutInterference 	5
scalar CoverageNetwork502.node3.nic.phy 	nbFramesWithInterferencePartial 	0
scalar CoverageNetwork502.node3.nic.phy 	nbFramesWithoutInterferencePartial 	0
scalar CoverageNetwork502.node3.nic.phy 	nbFramesWithInterferenceDropped 	0
scalar CoverageNetwork502.node3.nic.phy 	nbFramesWithoutInterferenceDropped 	0
scalar CoverageNetwork502.node3.tranl 	nbAggrPktReceived 	0
scalar CoverageNetwork502.node3.tranl 	"nbAggrPktSentDown " 	0
scalar CoverageNetwork502.node3.appl 	"activity duration" 	-1
attr unit  s
scalar CoverageNetwork502.node3.appl 	firstPacketGeneration 	-1
attr unit  s
scalar CoverageNetwork502.node3.appl 	lastPacketReception 	-2
attr unit  s
scalar CoverageNetwork502.node3.appl 	nbPacketsSent 	0
scalar CoverageNetwork502.node3.appl 	nbPacketsReceived 	0
statistic CoverageNetwork502.node3.appl 	latency
field count 0
field mean nan
field stddev nan
field sum 0
field sqrsum 0
field min nan
field max nan
scalar CoverageNetwork502.node3.batteryStats 	nominal 	180
attr unit  mW-s
scalar CoverageNetwork502.node3.batteryStats 	total 	0.40418944000004
attr unit  mW-s
scalar CoverageNetwork502.node3.batteryStats 	lifetime 	-1
attr unit  s
scalar CoverageNetwork502.node3.batteryStats 	"Mean power consumption" 	1.8780640844549
attr unit  mW
scalar CoverageNetwork502.node4.nic.mac 	nbTxFrames 	6
scalar CoverageNetwork502.node4.nic.mac 	nbRxFrames 	41
scalar CoverageNetwork502.node4.nic.mac 	nbDroppedFrames 	0
scalar CoverageNetwork502.node4.nic.mac 	nbMissedAcks 	0
scalar CoverageNetwork502.node4.nic.mac 	nbRecvdAcks 	0
scalar CoverageNetwork502.node4.nic.mac 	nbTxAcks 	0
scalar CoverageNetwork502.node4.nic.mac 	nbDuplicates 	0
scalar CoverageNetwork502.node4.nic.mac 	meanBackoff 	0.00069333333333333
scalar CoverageNetwork502.node4.nic.mac 	nbBackoffs 	6
scalar CoverageNetwork502.node4.nic.mac 	backoffDurations 	0.00416
scalar CoverageNetwork502.node4.nic.phy 	nbFramesWithInterference 	0
scalar CoverageNetwork502.node4.nic.phy 	nbFramesWithoutInterference 	43
scalar CoverageNetwork502.node4.nic.phy 	nbFramesWithInterferencePartial 	0
scalar CoverageNetwork502.node4.nic.phy 	nbFramesWithoutInterferencePartial 	0
scalar CoverageNetwork502.node4.nic.phy 	nbFramesWithInterferenceDropped 	0
scalar CoverageNetwork502.node4.nic.phy 	nbFramesWithoutInterferenceDropped 	0
scalar CoverageNetwork502.node4.tranl 	nbAggrPktReceived 	0
scalar CoverageNetwork502.node4.tranl 	"nbAggrPktSentDown " 	0
scalar CoverageNetwork502.node4.appl 	"activity duration" 	-1
attr unit  s
scalar CoverageNetwork502.node4.appl 	firstPacketGeneration 	-1
attr unit  s
scalar CoverageNetwork502.node4.appl 	lastPacketReception 	-2
attr unit  s
scalar CoverageNetwork502.node4.appl 	nbPacketsSent 	0
scalar CoverageNetwork502.node4.appl 	nbPacketsReceived 	0
statistic CoverageNetwork502.node4.appl 	latency
field count 0
field mean nan
field stddev nan
field sum 0
field sqrsum 0
field min nan
field max nan
scalar CoverageNetwork502.node4.batteryStats 	nominal 	180
attr unit  mW-s
scalar CoverageNetwork502.node4.batteryStats 	total 	0.40418944000007
attr unit  mW-s
scalar CoverageNetwork502.node4.batteryStats 	lifetime 	-1
attr unit  s
scalar CoverageNetwork502.node4.batteryStats 	"Mean power consumption" 	1.878064084455
attr unit  mW
scalar CoverageNetwork502.node5.nic.mac 	nbTxFrames 	6
scalar CoverageNetwork502.node5.nic.mac 	nbRxFrames 	49
scalar CoverageNetwork502.node5.nic.mac 	nbDroppedFrames 	0
scalar CoverageNetwork502.node5.nic.mac 	nbMissedAcks 	0
scalar CoverageNetwork502.node5.nic.mac 	nbRecvdAcks 	0
scalar CoverageNetwork502.node5.nic.mac 	nbTxAcks 	0
scalar CoverageNetwork502.node5.nic.mac 	nbDuplicates 	0
scalar CoverageNetwork502.node5.nic.mac 	meanBackoff 	0.00086857142857143
scalar CoverageNetwork502.node5.nic.mac 	nbBackoffs 	7
scalar CoverageNetwork502.node5.nic.mac 	backoffDurations 	0.00608
scalar CoverageNetwork502.node5.nic.phy 	nbFramesWithInterference 	0
scalar CoverageNetwork502.node5.nic.phy 	nbFramesWithoutInterference 	53
scalar CoverageNetwork502.node5.nic.phy 	nbFramesWithInterferencePartial 	0
scalar CoverageNetwork502.node5.nic.phy 	nbFramesWithoutInterferencePartial 	0
scalar CoverageNetwork502.node5.nic.phy 	nbFramesWithInterferenceDropped 	0
scalar CoverageNetwork502.node5.nic.phy 	nbFramesWithoutInterferenceDropped 	0
scalar CoverageNetwork502.node5.tranl 	nbAggrPktReceived 	0
scalar CoverageNetwork502.node5.tranl 	"nbAggrPktSentDown " 	0
scalar CoverageNetwork502.node5.appl 	"activity duration" 	-1
attr unit  s
scalar CoverageNetwork502.node5.appl 	firstPacketGeneration 	-1
attr unit  s
scalar CoverageNetwork502.node5.appl 	lastPacketReception 	-2
attr unit  s
scalar CoverageNetwork502.node5.appl 	nbPacketsSent 	0
scalar CoverageNetwork502.node5.appl 	nbPacketsReceived 	0
statistic CoverageNetwork502.node5.appl 	latency
field count 0
field mean nan
field stddev nan
field sum 0
field sqrsum 0
field min nan
field max nan
scalar CoverageNetwork502.node5.batteryStats 	nominal 	180
attr unit  mW-s
scalar CoverageNetwork502.node5.batteryStats 	total 	0.40418944000004
attr unit  mW-s
scalar CoverageNetwork502.node5.batteryStats 	lifetime 	-1
attr unit  s
scalar CoverageNetwork502.node5.batteryStats 	"Mean power consumption" 	1.8780640844549
attr unit  mW
scalar CoverageNetwork502.node6.nic.mac 	nbTxFrames 	24
scalar CoverageNetwork502.node6.nic.mac 	nbRxFrames 	30
scalar CoverageNetwork502.node6.nic.mac 	nbDroppedFrames 	0
scalar CoverageNetwork502.node6.nic.mac 	nbMissedAcks 	0
scalar CoverageNetwork502.node6.nic.mac 	nbRecvdAcks 	0
scalar CoverageNetwork502.node6.nic.mac 	nbTxAcks 	0
scalar CoverageNetwork502.node6.nic.mac 	nbDuplicates 	0
scalar CoverageNetwork502.node6.nic.mac 	meanBackoff 	0.001216
scalar CoverageNetwork502.node6.nic.mac 	nbBackoffs 	30
scalar CoverageNetwork502.node6.nic.mac 	backoffDurations 	0.03648
scalar CoverageNetwork502.node6.nic.phy 	nbFramesWithInterference 	3
scalar CoverageNetwork502.node6.nic.phy 	nbFramesWithoutInterference 	49
scalar CoverageNetwork502.node6.nic.phy 	nbFramesWithInterferencePartial 	0
scalar CoverageNetwork502.node6.nic.phy 	nbFramesWithoutInterferencePartial 	0
scalar CoverageNetwork502.node6.nic.phy 	nbFramesWithInterferenceDropped 	2
scalar CoverageNetwork502.node6.nic.phy 	nbFramesWithoutInterferenceDropped 	0
scalar CoverageNetwork502.node6.tranl 	nbAggrPktReceived 	0
scalar CoverageNetwork502.node6.tranl 	"nbAggrPktSentDown " 	0
scalar CoverageNetwork502.node6.appl 	"activity duration" 	-1
attr unit  s
scalar CoverageNetwork502.node6.appl 	firstPacketGeneration 	-1
attr unit  s
scalar CoverageNetwork502.node6.appl 	lastPacketReception 	-2
attr unit  s
scalar CoverageNetwork502.node6.appl 	nbPacketsSent 	0
scalar CoverageNetwork502.node6.appl 	nbPacketsReceived 	0
statistic CoverageNetwork502.node6.appl 	latency
field count 0
field mean nan
field stddev nan
field sum 0
field sqrsum 0
field min nan
field max nan
scalar CoverageNetwork502.node6.batteryStats 	nominal 	180
attr unit  mW-s
scalar CoverageNetwork502.node6.batteryStats 	total 	0.40293952000013
attr unit  mW-s
scalar CoverageNetwork502.node6.batteryStats 	lifetime 	-1
attr unit  s
scalar CoverageNetwork502.node6.batteryStats 	"Mean power consumption" 	1.8722563378194
attr unit  mW
scalar CoverageNetwork502.node7.nic.mac 	nbTxFrames 	6
scalar CoverageNetwork502.node7.nic.mac 	nbRxFrames 	0
scalar CoverageNetwork502.node7.nic.mac 	nbDroppedFrames 	0
scalar CoverageNetwork502.node7.nic.mac 	nbMissedAcks 	0
scalar CoverageNetwork502.node7.nic.mac 	nbRecvdAcks 	0
scalar CoverageNetwork502.node7.nic.mac 	nbTxAcks 	0
scalar CoverageNetwork502.node7.nic.mac 	nbDuplicates 	0
scalar CoverageNetwork502.node7.nic.mac 	meanBackoff 	0.0012266666666667
scalar CoverageNetwork502.node7.nic.mac 	nbBackoffs 	6
scalar CoverageNetwork502.node7.nic.mac 	backoffDurations 	0.00736
scalar CoverageNetwork502.node7.nic.phy 	nbFramesWithInterference 	0
scalar CoverageNetwork502.node7.nic.phy 	nbFramesWithoutInterference 	0
scalar CoverageNetwork502.node7.nic.phy 	nbFramesWithInterferencePartial 	0
scalar CoverageNetwork502.node7.nic.phy 	nbFramesWithoutInterferencePartial 	0
scalar CoverageNetwork502.node7.nic.phy 	nbFramesWithInterferenceDropped 	0
scalar CoverageNetwork502.node7.nic.phy 	nbFramesWithoutInterferenceDropped 	0
scalar CoverageNetwork502.node7.tranl 	nbAggrPktReceived 	0
scalar CoverageNetwork502.node7.tranl 	"nbAggrPktSentDown " 	0
scalar CoverageNetwork502.node7.appl 	"activity duration" 	-1
attr unit  s
scalar CoverageNetwork502.node7.appl 	firstPacketGeneration 	-1
attr unit  s
scalar CoverageNetwork502.node7.appl 	lastPacketReception 	-2
attr unit  s
scalar CoverageNetwork502.node7.appl 	nbPacketsSent 	0
scalar CoverageNetwork502.node7.appl 	nbPacketsReceived 	0
statistic CoverageNetwork502.node7.appl 	latency
field count 0
field mean nan
field stddev nan
field sum 0
field sqrsum 0
field min nan
field max nan
scalar CoverageNetwork502.node7.batteryStats 	nominal 	180
attr unit  mW-s
scalar CoverageNetwork502.node7.batteryStats 	total 	0.40418944000004
attr unit  mW-s
scalar CoverageNetwork502.node7.batteryStats 	lifetime 	-1
attr unit  s
scalar CoverageNetwork502.node7.batteryStats 	"Mean power consumption" 	1.8780640844549
attr unit  mW
scalar CoverageNetwork502.node8.nic.mac 	nbTxFrames 	39
scalar CoverageNetwork502.node8.nic.mac 	nbRxFrames 	13
scalar CoverageNetwork502.node8.nic.mac 	nbDroppedFrames 	0
scalar CoverageNetwork502.node8.nic.mac 	nbMissedAcks 	0
scalar CoverageNetwork502.node8.nic.mac 	nbRecvdAcks 	0
scalar CoverageNetwork502.node8.nic.mac 	nbTxAcks 	0
scalar CoverageNetwork502.node8.nic.mac 	nbDuplicates 	0
scalar CoverageNetwork502.node8.nic.mac 	meanBackoff 	0.0013297777777778
scalar CoverageNetwork502.node8.nic.mac 	nbBackoffs 	45
scalar CoverageNetwork502.node8.nic.mac 	backoffDurations 	0.05984
scalar CoverageNetwork502.node8.nic.phy 	nbFramesWithInterference 	7
scalar CoverageNetwork502.node8.nic.phy 	nbFramesWithoutInterference 	54
scalar CoverageNetwork502.node8.nic.phy 	nbFramesWithInterferencePartial 	0
scalar CoverageNetwork502.node8.nic.phy 	nbFramesWithoutInterferencePartial 	0
scalar CoverageNetwork502.node8.nic.phy 	nbFramesWithInterferenceDropped 	0
scalar CoverageNetwork502.node8.nic.phy 	nbFramesWithoutInterferenceDropped 	0
scalar CoverageNetwork502.node8.tranl 	nbAggrPktReceived 	0
scalar CoverageNetwork502.node8.tranl 	"nbAggrPktSentDown " 	0
scalar CoverageNetwork502.node8.appl 	"activity duration" 	-1
attr unit  s
scalar CoverageNetwork502.node8.appl 	firstPacketGeneration 	-1
attr unit  s
scalar CoverageNetwork502.node8.appl 	lastPacketReception 	-2
attr unit  s
scalar CoverageNetwork502.node8.appl 	nbPacketsSent 	0
scalar CoverageNetwork502.node8.appl 	nbPacketsReceived 	0
statistic CoverageNetwork502.node8.appl 	latency
field count 0
field mean nan
field stddev nan
field sum 0
field sqrsum 0
field min nan
field max nan
scalar CoverageNetwork502.node8.batteryStats 	nominal 	180
attr unit  mW-s
scalar CoverageNetwork502.node8.batteryStats 	total 	0.40189792000012
attr unit  mW-s
scalar CoverageNetwork502.node8.batteryStats 	lifetime 	-1
attr unit  s
scalar CoverageNetwork502.node8.batteryStats 	"Mean power consumption" 	1.867416548956
attr unit  mW
scalar CoverageNetwork502.node9.nic.mac 	nbTxFrames 	6
scalar CoverageNetwork502.node9.nic.mac 	nbRxFrames 	10
scalar CoverageNetwork502.node9.nic.mac 	nbDroppedFrames 	0
scalar CoverageNetwork502.node9.nic.mac 	nbMissedAcks 	0
scalar CoverageNetwork502.node9.nic.mac 	nbRecvdAcks 	0
scalar CoverageNetwork502.node9.nic.mac 	nbTxAcks 	0
scalar CoverageNetwork502.node9.nic.mac 	nbDuplicates 	0
scalar CoverageNetwork502.node9.nic.mac 	meanBackoff 	0.0011733333333333
scalar CoverageNetwork502.node9.nic.mac 	nbBackoffs 	6
scalar CoverageNetwork502.node9.nic.mac 	backoffDurations 	0.00704
scalar CoverageNetwork502.node9.nic.phy 	nbFramesWithInterference 	0
scalar CoverageNetwork502.node9.nic.phy 	nbFramesWithoutInterference 	18
scalar CoverageNetwork502.node9.nic.phy 	nbFramesWithInterferencePartial 	0
scalar CoverageNetwork502.node9.nic.phy 	nbFramesWithoutInterferencePartial 	0
scalar CoverageNetwork502.node9.nic.phy 	nbFramesWithInterferenceDropped 	0
scalar CoverageNetwork502.node9.nic.phy 	nbFramesWithoutInterferenceDropped 	0
scalar CoverageNetwork502.node9.tranl 	nbAggrPktReceived 	0
scalar CoverageNetwork502.node9.tranl 	"nbAggrPktSentDown " 	0
scalar CoverageNetwork502.node9.appl 	"activity duration" 	-1
attr unit  s
scalar CoverageNetwork502.node9.appl 	firstPacketGeneration 	-1
attr unit  s
scalar CoverageNetwork502.node9.appl 	lastPacketReception 	-2
attr unit  s
scalar CoverageNetwork502.node9.appl 	nbPacketsSent 	0
scalar CoverageNetwork502.node9.appl 	nbPacketsReceived 	0
statistic CoverageNetwork502.node9.appl 	latency
field count 0
field mean nan
field stddev nan
field sum 0
field sqrsum 0
field min nan
field max nan
scalar CoverageNetwork502.node9.batteryStats 	nominal 	180
attr unit  mW-s
scalar CoverageNetwork502.node9.batteryStats 	total 	0.40418944000004
attr unit  mW-s
scalar CoverageNetwork502.node9.batteryStats 	lifetime 	-1
attr unit  s
scalar CoverageNetwork502.node9.batteryStats 	"Mean power consumption" 	1.8780640844549
attr unit  mW
scalar CoverageNetwork502.node10.nic.mac 	nbTxFrames 	35
scalar CoverageNetwork502.node10.nic.mac 	nbRxFrames 	11
scalar CoverageNetwork502.node10.nic.mac 	nbDroppedFrames 	0
scalar CoverageNetwork502.node10.nic.mac 	nbMissedAcks 	0
scalar CoverageNetwork502.node10.nic.mac 	nbRecvdAcks 	0
scalar CoverageNetwork502.node10.nic.mac 	nbTxAcks 	0
scalar CoverageNetwork502.node10.nic.mac 	nbDuplicates 	0
scalar CoverageNetwork502.node10.nic.mac 	meanBackoff 	0.0012444444444444
scalar CoverageNetwork502.node10.nic.mac 	nbBackoffs 	45
scalar CoverageNetwork502.node10.nic.mac 	backoffDurations 	0.056
scalar CoverageNetwork502.node10.nic.phy 	nbFramesWithInterference 	3
scalar CoverageNetwork502.node10.nic.phy 	nbFramesWithoutInterference 	58
scalar CoverageNetwork502.node10.nic.phy 	nbFramesWithInterferencePartial 	0
scalar CoverageNetwork502.node10.nic.phy 	nbFramesWithoutInterferencePartial 	0
scalar CoverageNetwork502.node10.nic.phy 	nbFramesWithInterferenceDropped 	5
scalar CoverageNetwork502.node10.nic.phy 	nbFramesWithoutInterferenceDropped 	0
scalar CoverageNetwork502.node10.tranl 	nbAggrPktReceived 	0
scalar CoverageNetwork502.node10.tranl 	"nbAggrPktSentDown " 	0
scalar CoverageNetwork502.node10.appl 	"activity duration" 	-1
attr unit  s
scalar CoverageNetwork502.node10.appl 	firstPacketGeneration 	-1
attr unit  s
scalar CoverageNetwork502.node10.appl 	lastPacketReception 	-2
attr unit  s
scalar CoverageNetwork502.node10.appl 	nbPacketsSent 	0
scalar CoverageNetwork502.node10.appl 	nbPacketsReceived 	0
statistic CoverageNetwork502.node10.appl 	latency
field count 0
field mean nan
field stddev nan
field sum 0
field sqrsum 0
field min nan
field max nan
scalar CoverageNetwork502.node10.batteryStats 	nominal 	180
attr unit  mW-s
scalar CoverageNetwork502.node10.batteryStats 	total 	0.40217568000017
attr unit  mW-s
scalar CoverageNetwork502.node10.batteryStats 	lifetime 	-1
attr unit  s
scalar CoverageNetwork502.node10.batteryStats 	"Mean power consumption" 	1.8687071593198
attr unit  mW
scalar CoverageNetwork502.node11.nic.mac 	nbTxFrames 	44
scalar CoverageNetwork502.node11.nic.mac 	nbRxFrames 	0
scalar CoverageNetwork502.node11.nic.mac 	nbDroppedFrames 	0
scalar CoverageNetwork502.node11.nic.mac 	nbMissedAcks 	0
scalar CoverageNetwork502.node11.nic.mac 	nbRecvdAcks 	0
scalar CoverageNetwork502.node11.nic.mac 	nbTxAcks 	0
scalar CoverageNetwork502.node11.nic.mac 	nbDuplicates 	0
scalar CoverageNetwork502.node11.nic.mac 	meanBackoff 	0.0015758490566038
scalar CoverageNetwork502.node11.nic.mac 	nbBackoffs 	53
scalar CoverageNetwork502.node11.nic.mac 	backoffDurations 	0.08352
scalar CoverageNetwork502.node11.nic.phy 	nbFramesWithInterference 	3
scalar CoverageNetwork502.node11.nic.phy 	nbFramesWithoutInterference 	62
scalar CoverageNetwork502.node11.nic.phy 	nbFramesWithInterferencePartial 	0
scalar CoverageNetwork502.node11.nic.phy 	nbFramesWithoutInterferencePartial 	0
scalar CoverageNetwork502.node11.nic.phy 	nbFramesWithInterferenceDropped 	0
scalar CoverageNetwork502.node11.nic.phy 	nbFramesWithoutInterferenceDropped 	0
scalar CoverageNetwork502.node11.tranl 	nbAggrPktReceived 	0
scalar CoverageNetwork502.node11.tranl 	"nbAggrPktSentDown " 	0
scalar CoverageNetwork502.node11.appl 	"activity duration" 	-1
attr unit  s
scalar CoverageNetwork502.node11.appl 	firstPacketGeneration 	-1
attr unit  s
scalar CoverageNetwork502.node11.appl 	lastPacketReception 	-2
attr unit  s
scalar CoverageNetwork502.node11.appl 	nbPacketsSent 	0
scalar CoverageNetwork502.node11.appl 	nbPacketsReceived 	0
statistic CoverageNetwork502.node11.appl 	latency
field count 0
field mean nan
field stddev nan
field sum 0
field sqrsum 0
field min nan
field max nan
scalar CoverageNetwork502.node11.batteryStats 	nominal 	180
attr unit  mW-s
scalar CoverageNetwork502.node11.batteryStats 	total 	0.40159776000016
attr unit  mW-s
scalar CoverageNetwork502.node11.batteryStats 	lifetime 	-1
attr unit  s
scalar CoverageNetwork502.node11.batteryStats 	"Mean power consumption" 	1.8660218571117
attr unit  mW
scalar CoverageNetwork502.node12.nic.mac 	nbTxFrames 	38
scalar CoverageNetwork502.node12.nic.mac 	nbRxFrames 	0
scalar CoverageNetwork502.node12.nic.mac 	nbDroppedFrames 	0
scalar CoverageNetwork502.node12.nic.mac 	nbMissedAcks 	0
scalar CoverageNetwork502.node12.nic.mac 	nbRecvdAcks 	0
scalar CoverageNetwork502.node12.nic.mac 	nbTxAcks 	0
scalar CoverageNetwork502.node12.nic.mac 	nbDuplicates 	0
scalar CoverageNetwork502.node12.nic.mac 	meanBackoff 	0.0017169230769231
scalar CoverageNetwork502.node12.nic.mac 	nbBackoffs 	52
scalar CoverageNetwork502.node12.nic.mac 	backoffDurations 	0.08928
scalar CoverageNetwork502.node12.nic.phy 	nbFramesWithInterference 	13
scalar CoverageNetwork502.node12.nic.phy 	nbFramesWithoutInterference 	70
scalar CoverageNetwork502.node12.nic.phy 	nbFramesWithInterferencePartial 	0
scalar CoverageNetwork502.node12.nic.phy 	nbFramesWithoutInterferencePartial 	0
scalar CoverageNetwork502.node12.nic.phy 	nbFramesWithInterferenceDropped 	5
scalar CoverageNetwork502.node12.nic.phy 	nbFramesWithoutInterferenceDropped 	0
scalar CoverageNetwork502.node12.tranl 	nbAggrPktReceived 	0
scalar CoverageNetwork502.node12.tranl 	"nbAggrPktSentDown " 	0
scalar CoverageNetwork502.node12.appl 	"activity duration" 	-1
attr unit  s
scalar CoverageNetwork502.node12.appl 	firstPacketGeneration 	-1
attr unit  s
scalar CoverageNetwork502.node12.appl 	lastPacketReception 	-2
attr unit  s
scalar CoverageNetwork502.node12.appl 	nbPacketsSent 	0
scalar CoverageNetwork502.node12.appl 	nbPacketsReceived 	0
statistic CoverageNetwork502.node12.appl 	latency
field count 0
field mean nan
field stddev nan
field sum 0
field sqrsum 0
field min nan
field max nan
scalar CoverageNetwork502.node12.batteryStats 	nominal 	180
attr unit  mW-s
scalar CoverageNetwork502.node12.batteryStats 	total 	0.40197408000023
attr unit  mW-s
scalar CoverageNetwork502.node12.batteryStats 	lifetime 	-1
attr unit  s
scalar CoverageNetwork502.node12.batteryStats 	"Mean power consumption" 	1.8677704259917
attr unit  mW
scalar CoverageNetwork502.node13.nic.mac 	nbTxFrames 	44
scalar CoverageNetwork502.node13.nic.mac 	nbRxFrames 	0
scalar CoverageNetwork502.node13.nic.mac 	nbDroppedFrames 	0
scalar CoverageNetwork502.node13.nic.mac 	nbMissedAcks 	0
scalar CoverageNetwork502.node13.nic.mac 	nbRecvdAcks 	0
scalar CoverageNetwork502.node13.nic.mac 	nbTxAcks 	0
scalar CoverageNetwork502.node13.nic.mac 	nbDuplicates 	0
scalar CoverageNetwork502.node13.nic.mac 	meanBackoff 	0.0013642105263158
scalar CoverageNetwork502.node13.nic.mac 	nbBackoffs 	57
scalar CoverageNetwork502.node13.nic.mac 	backoffDurations 	0.07776
scalar CoverageNetwork502.node13.nic.phy 	nbFramesWithInterference 	4
scalar CoverageNetwork502.node13.nic.phy 	nbFramesWithoutInterference 	64
scalar CoverageNetwork502.node13.nic.phy 	nbFramesWithInterferencePartial 	1
scalar CoverageNetwork502.node13.nic.phy 	nbFramesWithoutInterferencePartial 	0
scalar CoverageNetwork502.node13.nic.phy 	nbFramesWithInterferenceDropped 	0
scalar CoverageNetwork502.node13.nic.phy 	nbFramesWithoutInterferenceDropped 	0
scalar CoverageNetwork502.node13.tranl 	nbAggrPktReceived 	0
scalar CoverageNetwork502.node13.tranl 	"nbAggrPktSentDown " 	0
scalar CoverageNetwork502.node13.appl 	"activity duration" 	-1
attr unit  s
scalar CoverageNetwork502.node13.appl 	firstPacketGeneration 	-1
attr unit  s
scalar CoverageNetwork502.node13.appl 	lastPacketReception 	-2
attr unit  s
scalar CoverageNetwork502.node13.appl 	nbPacketsSent 	0
scalar CoverageNetwork502.node13.appl 	nbPacketsReceived 	0
statistic CoverageNetwork502.node13.appl 	latency
field count 0
field mean nan
field stddev nan
field sum 0
field sqrsum 0
field min nan
field max nan
scalar CoverageNetwork502.node13.batteryStats 	nominal 	180
attr unit  mW-s
scalar CoverageNetwork502.node13.batteryStats 	total 	0.40155072000016
attr unit  mW-s
scalar CoverageNetwork502.node13.batteryStats 	lifetime 	-1
attr unit  s
scalar CoverageNetwork502.node13.batteryStats 	"Mean power consumption" 	1.8658032860018
attr unit  mW
scalar CoverageNetwork502.node14.nic.mac 	nbTxFrames 	6
scalar CoverageNetwork502.node14.nic.mac 	nbRxFrames 	1
scalar CoverageNetwork502.node14.nic.mac 	nbDroppedFrames 	0
scalar CoverageNetwork502.node14.nic.mac 	nbMissedAcks 	0
scalar CoverageNetwork502.node14.nic.mac 	nbRecvdAcks 	0
scalar CoverageNetwork502.node14.nic.mac 	nbTxAcks 	0
scalar CoverageNetwork502.node14.nic.mac 	nbDuplicates 	0
scalar CoverageNetwork502.node14.nic.mac 	meanBackoff 	0.00069333333333333
scalar CoverageNetwork502.node14.nic.mac 	nbBackoffs 	6
scalar CoverageNetwork502.node14.nic.mac 	backoffDurations 	0.00416
scalar CoverageNetwork502.node14.nic.phy 	nbFramesWithInterference 	0
scalar CoverageNetwork502.node14.nic.phy 	nbFramesWithoutInterference 	4
scalar CoverageNetwork502.node14.nic.phy 	nbFramesWithInterferencePartial 	0
scalar CoverageNetwork502.node14.nic.phy 	nbFramesWithoutInterferencePartial 	0
scalar CoverageNetwork502.node14.nic.phy 	nbFramesWithInterferenceDropped 	0
scalar CoverageNetwork502.node14.nic.phy 	nbFramesWithoutInterferenceDropped 	0
scalar CoverageNetwork502.node14.tranl 	nbAggrPktReceived 	0
scalar CoverageNetwork502.node14.tranl 	"nbAggrPktSentDown " 	0
scalar CoverageNetwork502.node14.appl 	"activity duration" 	-1
attr unit  s
scalar CoverageNetwork502.node14.appl 	firstPacketGeneration 	-1
attr unit  s
scalar CoverageNetwork502.node14.appl 	lastPacketReception 	-2
attr unit  s
scalar CoverageNetwork502.node14.appl 	nbPacketsSent 	0
scalar CoverageNetwork502.node14.appl 	nbPacketsReceived 	0
statistic CoverageNetwork502.node14.appl 	latency
field count 0
field mean nan
field stddev nan
field sum 0
field sqrsum 0
field min nan
field max nan
scalar CoverageNetwork502.node14.batteryStats 	nominal 	180
attr unit  mW-s
scalar CoverageNetwork502.node14.batteryStats 	total 	0.40418944000004
attr unit  mW-s
scalar CoverageNetwork502.node14.batteryStats 	lifetime 	-1
attr unit  s
scalar CoverageNetwork502.node14.batteryStats 	"Mean power consumption" 	1.8780640844549
attr unit  mW
scalar CoverageNetwork502.node15.nic.mac 	nbTxFrames 	40
scalar CoverageNetwork502.node15.nic.mac 	nbRxFrames 	4
scalar CoverageNetwork502.node15.nic.mac 	nbDroppedFrames 	0
scalar CoverageNetwork502.node15.nic.mac 	nbMissedAcks 	0
scalar CoverageNetwork502.node15.nic.mac 	nbRecvdAcks 	0
scalar CoverageNetwork502.node15.nic.mac 	nbTxAcks 	0
scalar CoverageNetwork502.node15.nic.mac 	nbDuplicates 	0
scalar CoverageNetwork502.node15.nic.mac 	meanBackoff 	0.0013733333333333
scalar CoverageNetwork502.node15.nic.mac 	nbBackoffs 	48
scalar CoverageNetwork502.node15.nic.mac 	backoffDurations 	0.06592
scalar CoverageNetwork502.node15.nic.phy 	nbFramesWithInterference 	6
scalar CoverageNetwork502.node15.nic.phy 	nbFramesWithoutInterference 	47
scalar CoverageNetwork502.node15.nic.phy 	nbFramesWithInterferencePartial 	0
scalar CoverageNetwork502.node15.nic.phy 	nbFramesWithoutInterferencePartial 	0
scalar CoverageNetwork502.node15.nic.phy 	nbFramesWithInterferenceDropped 	0
scalar CoverageNetwork502.node15.nic.phy 	nbFramesWithoutInterferenceDropped 	0
scalar CoverageNetwork502.node15.tranl 	nbAggrPktReceived 	0
scalar CoverageNetwork502.node15.tranl 	"nbAggrPktSentDown " 	0
scalar CoverageNetwork502.node15.appl 	"activity duration" 	-1
attr unit  s
scalar CoverageNetwork502.node15.appl 	firstPacketGeneration 	-1
attr unit  s
scalar CoverageNetwork502.node15.appl 	lastPacketReception 	-2
attr unit  s
scalar CoverageNetwork502.node15.appl 	nbPacketsSent 	0
scalar CoverageNetwork502.node15.appl 	nbPacketsReceived 	0
statistic CoverageNetwork502.node15.appl 	latency
field count 0
field mean nan
field stddev nan
field sum 0
field sqrsum 0
field min nan
field max nan
scalar CoverageNetwork502.node15.batteryStats 	nominal 	180
attr unit  mW-s
scalar CoverageNetwork502.node15.batteryStats 	total 	0.4018284800002
attr unit  mW-s
scalar CoverageNetwork502.node15.batteryStats 	lifetime 	-1
attr unit  s
scalar CoverageNetwork502.node15.batteryStats 	"Mean power consumption" 	1.8670938963655
attr unit  mW
scalar CoverageNetwork502.node16.nic.mac 	nbTxFrames 	6
scalar CoverageNetwork502.node16.nic.mac 	nbRxFrames 	65
scalar CoverageNetwork502.node16.nic.mac 	nbDroppedFrames 	0
scalar CoverageNetwork502.node16.nic.mac 	nbMissedAcks 	0
scalar CoverageNetwork502.node16.nic.mac 	nbRecvdAcks 	0
scalar CoverageNetwork502.node16.nic.mac 	nbTxAcks 	0
scalar CoverageNetwork502.node16.nic.mac 	nbDuplicates 	0
scalar CoverageNetwork502.node16.nic.mac 	meanBackoff 	0.0010133333333333
scalar CoverageNetwork502.node16.nic.mac 	nbBackoffs 	6
scalar CoverageNetwork502.node16.nic.mac 	backoffDurations 	0.00608
scalar CoverageNetwork502.node16.nic.phy 	nbFramesWithInterference 	0
scalar CoverageNetwork502.node16.nic.phy 	nbFramesWithoutInterference 	71
scalar CoverageNetwork502.node16.nic.phy 	nbFramesWithInterferencePartial 	0
scalar CoverageNetwork502.node16.nic.phy 	nbFramesWithoutInterferencePartial 	0
scalar CoverageNetwork502.node16.nic.phy 	nbFramesWithInterferenceDropped 	0
scalar CoverageNetwork502.node16.nic.phy 	nbFramesWithoutInterferenceDropped 	0
scalar CoverageNetwork502.node16.tranl 	nbAggrPktReceived 	0
scalar CoverageNetwork502.node16.tranl 	"nbAggrPktSentDown " 	0
scalar CoverageNetwork502.node16.appl 	"activity duration" 	-1
attr unit  s
scalar CoverageNetwork502.node16.appl 	firstPacketGeneration 	-1
attr unit  s
scalar CoverageNetwork502.node16.appl 	lastPacketReception 	-2
attr unit  s
scalar CoverageNetwork502.node16.appl 	nbPacketsSent 	0
scalar CoverageNetwork502.node16.appl 	nbPacketsReceived 	0
statistic CoverageNetwork502.node16.appl 	latency
field count 0
field mean nan
field stddev nan
field sum 0
field sqrsum 0
field min nan
field max nan
scalar CoverageNetwork502.node16.batteryStats 	nominal 	180
attr unit  mW-s
scalar CoverageNetwork502.node16.batteryStats 	total 	0.40418944000004
attr unit  mW-s
scalar CoverageNetwork502.node16.batteryStats 	lifetime 	-1
attr unit  s
scalar CoverageNetwork502.node16.batteryStats 	"Mean power consumption" 	1.8780640844549
attr unit  mW
scalar CoverageNetwork502.node17.nic.mac 	nbTxFrames 	36
scalar CoverageNetwork502.node17.nic.mac 	nbRxFrames 	0
scalar CoverageNetwork502.node17.nic.mac 	nbDroppedFrames 	0
scalar CoverageNetwork502.node17.nic.mac 	nbMissedAcks 	0
scalar CoverageNetwork502.node17.nic.mac 	nbRecvdAcks 	0
scalar CoverageNetwork502.node17.nic.mac 	nbTxAcks 	0
scalar CoverageNetwork502.node17.nic.mac 	nbDuplicates 	0
scalar CoverageNetwork502.node17.nic.mac 	meanBackoff 	0.0016114285714286
scalar CoverageNetwork502.node17.nic.mac 	nbBackoffs 	56
scalar CoverageNetwork502.node17.nic.mac 	backoffDurations 	0.09024
scalar CoverageNetwork502.node17.nic.phy 	nbFramesWithInterference 	8
scalar CoverageNetwork502.node17.nic.phy 	nbFramesWithoutInterference 	82
scalar CoverageNetwork502.node17.nic.phy 	nbFramesWithInterferencePartial 	2
scalar CoverageNetwork502.node17.nic.phy 	nbFramesWithoutInterferencePartial 	0
scalar CoverageNetwork502.node17.nic.phy 	nbFramesWithInterferenceDropped 	0
scalar CoverageNetwork502.node17.nic.phy 	nbFramesWithoutInterferenceDropped 	0
scalar CoverageNetwork502.node17.tranl 	nbAggrPktReceived 	0
scalar CoverageNetwork502.node17.tranl 	"nbAggrPktSentDown " 	0
scalar CoverageNetwork502.node17.appl 	"activity duration" 	-1
attr unit  s
scalar CoverageNetwork502.node17.appl 	firstPacketGeneration 	-1
attr unit  s
scalar CoverageNetwork502.node17.appl 	lastPacketReception 	-2
attr unit  s
scalar CoverageNetwork502.node17.appl 	nbPacketsSent 	0
scalar CoverageNetwork502.node17.appl 	nbPacketsReceived 	0
statistic CoverageNetwork502.node17.appl 	latency
field count 0
field mean nan
field stddev nan
field sum 0
field sqrsum 0
field min nan
field max nan
scalar CoverageNetwork502.node17.batteryStats 	nominal 	180
attr unit  mW-s
scalar CoverageNetwork502.node17.batteryStats 	total 	0.40210624000022
attr unit  mW-s
scalar CoverageNetwork502.node17.batteryStats 	lifetime 	-1
attr unit  s
scalar CoverageNetwork502.node17.batteryStats 	"Mean power consumption" 	1.8683845067292
attr unit  mW
scalar CoverageNetwork502.node18.nic.mac 	nbTxFrames 	6
scalar CoverageNetwork502.node18.nic.mac 	nbRxFrames 	0
scalar CoverageNetwork502.node18.nic.mac 	nbDroppedFrames 	0
scalar CoverageNetwork502.node18.nic.mac 	nbMissedAcks 	0
scalar CoverageNetwork502.node18.nic.mac 	nbRecvdAcks 	0
scalar CoverageNetwork502.node18.nic.mac 	nbTxAcks 	0
scalar CoverageNetwork502.node18.nic.mac 	nbDuplicates 	0
scalar CoverageNetwork502.node18.nic.mac 	meanBackoff 	0.00090666666666667
scalar CoverageNetwork502.node18.nic.mac 	nbBackoffs 	6
scalar CoverageNetwork502.node18.nic.mac 	backoffDurations 	0.00544
scalar CoverageNetwork502.node18.nic.phy 	nbFramesWithInterference 	0
scalar CoverageNetwork502.node18.nic.phy 	nbFramesWithoutInterference 	0
scalar CoverageNetwork502.node18.nic.phy 	nbFramesWithInterferencePartial 	0
scalar CoverageNetwork502.node18.nic.phy 	nbFramesWithoutInterferencePartial 	0
scalar CoverageNetwork502.node18.nic.phy 	nbFramesWithInterferenceDropped 	0
scalar CoverageNetwork502.node18.nic.phy 	nbFramesWithoutInterferenceDropped 	0
scalar CoverageNetwork502.node18.tranl 	nbAggrPktReceived 	0
scalar CoverageNetwork502.node18.tranl 	"nbAggrPktSentDown " 	0
scalar CoverageNetwork502.node18.appl 	"activity duration" 	-1
attr unit  s
scalar CoverageNetwork502.node18.appl 	firstPacketGeneration 	-1
attr unit  s
scalar CoverageNetwork502.node18.appl 	lastPacketReception 	-2
attr unit  s
scalar CoverageNetwork502.node18.appl 	nbPacketsSent 	0
scalar CoverageNetwork502.node18.appl 	nbPacketsReceived 	0
statistic CoverageNetwork502.node18.appl 	latency
field count 0
field mean nan
field stddev nan
field sum 0
field sqrsum 0
field min nan
field max nan
scalar CoverageNetwork502.node18.batteryStats 	nominal 	180
attr unit  mW-s
scalar CoverageNetwork502.node18.batteryStats 	total 	0.40418944000007
attr unit  mW-s
scalar CoverageNetwork502.node18.batteryStats 	lifetime 	-1
attr unit  s
scalar CoverageNetwork502.node18.batteryStats 	"Mean power consumption" 	1.878064084455
attr unit  mW
scalar CoverageNetwork502.node19.nic.mac 	nbTxFrames 	6
scalar CoverageNetwork502.node19.nic.mac 	nbRxFrames 	0
scalar CoverageNetwork502.node19.nic.mac 	nbDroppedFrames 	0
scalar CoverageNetwork502.node19.nic.mac 	nbMissedAcks 	0
scalar CoverageNetwork502.node19.nic.mac 	nbRecvdAcks 	0
scalar CoverageNetwork502.node19.nic.mac 	nbTxAcks 	0
scalar CoverageNetwork502.node19.nic.mac 	nbDuplicates 	0
scalar CoverageNetwork502.node19.nic.mac 	meanBackoff 	0.0012266666666667
scalar CoverageNetwork502.node19.nic.mac 	nbBackoffs 	6
scalar CoverageNetwork502.node19.nic.mac 	backoffDurations 	0.00736
scalar CoverageNetwork502.node19.nic.phy 	nbFramesWithInterference 	0
scalar CoverageNetwork502.node19.nic.phy 	nbFramesWithoutInterference 	0
scalar CoverageNetwork502.node19.nic.phy 	nbFramesWithInterferencePartial 	0
scalar CoverageNetwork502.node19.nic.phy 	nbFramesWithoutInterferencePartial 	0
scalar CoverageNetwork502.node19.nic.phy 	nbFramesWithInterferenceDropped 	0
scalar CoverageNetwork502.node19.nic.phy 	nbFramesWithoutInterferenceDropped 	0
scalar CoverageNetwork502.node19.tranl 	nbAggrPktReceived 	0
scalar CoverageNetwork502.node19.tranl 	"nbAggrPktSentDown " 	0
scalar CoverageNetwork502.node19.appl 	"activity duration" 	-1
attr unit  s
scalar CoverageNetwork502.node19.appl 	firstPacketGeneration 	-1
attr unit  s
scalar CoverageNetwork502.node19.appl 	lastPacketReception 	-2
attr unit  s
scalar CoverageNetwork502.node19.appl 	nbPacketsSent 	0
scalar CoverageNetwork502.node19.appl 	nbPacketsReceived 	0
statistic CoverageNetwork502.node19.appl 	latency
field count 0
field mean nan
field stddev nan
field sum 0
field sqrsum 0
field min nan
field max nan
scalar CoverageNetwork502.node19.batteryStats 	nominal 	180
attr unit  mW-s
scalar CoverageNetwork502.node19.batteryStats 	total 	0.40418944000004
attr unit  mW-s
scalar CoverageNetwork502.node19.batteryStats 	lifetime 	-1
attr unit  s
scalar CoverageNetwork502.node19.batteryStats 	"Mean power consumption" 	1.8780640844549
attr unit  mW
scalar CoverageNetwork502.node20.nic.mac 	nbTxFrames 	32
scalar CoverageNetwork502.node20.nic.mac 	nbRxFrames 	12
scalar CoverageNetwork502.node20.nic.mac 	nbDroppedFrames 	0
scalar CoverageNetwork502.node20.nic.mac 	nbMissedAcks 	0
scalar CoverageNetwork502.node20.nic.mac 	nbRecvdAcks 	0
scalar CoverageNetwork502.node20.nic.mac 	nbTxAcks 	0
scalar CoverageNetwork502.node20.nic.mac 	nbDuplicates 	0
scalar CoverageNetwork502.node20.nic.mac 	meanBackoff 	0.0016410256410256
scalar CoverageNetwork502.node20.nic.mac 	nbBackoffs 	39
scalar CoverageNetwork502.node20.nic.mac 	backoffDurations 	0.064
scalar CoverageNetwork502.node20.nic.phy 	nbFramesWithInterference 	4
scalar CoverageNetwork502.node20.nic.phy 	nbFramesWithoutInterference 	51
scalar CoverageNetwork502.node20.nic.phy 	nbFramesWithInterferencePartial 	0
scalar CoverageNetwork502.node20.nic.phy 	nbFramesWithoutInterferencePartial 	0
scalar CoverageNetwork502.node20.nic.phy 	nbFramesWithInterferenceDropped 	1
scalar CoverageNetwork502.node20.nic.phy 	nbFramesWithoutInterferenceDropped 	0
scalar CoverageNetwork502.node20.tranl 	nbAggrPktReceived 	0
scalar CoverageNetwork502.node20.tranl 	"nbAggrPktSentDown " 	0
scalar CoverageNetwork502.node20.appl 	"activity duration" 	-1
attr unit  s
scalar CoverageNetwork502.node20.appl 	firstPacketGeneration 	-1
attr unit  s
scalar CoverageNetwork502.node20.appl 	lastPacketReception 	-2
attr unit  s
scalar CoverageNetwork502.node20.appl 	nbPacketsSent 	0
scalar CoverageNetwork502.node20.appl 	nbPacketsReceived 	0
statistic CoverageNetwork502.node20.appl 	latency
field count 0
field mean nan
field stddev nan
field sum 0
field sqrsum 0
field min nan
field max nan
scalar CoverageNetwork502.node20.batteryStats 	nominal 	180
attr unit  mW-s
scalar CoverageNetwork502.node20.batteryStats 	total 	0.40238400000015
attr unit  mW-s
scalar CoverageNetwork502.node20.batteryStats 	lifetime 	-1
attr unit  s
scalar CoverageNetwork502.node20.batteryStats 	"Mean power consumption" 	1.8696751170924
attr unit  mW
scalar CoverageNetwork502.node21.nic.mac 	nbTxFrames 	41
scalar CoverageNetwork502.node21.nic.mac 	nbRxFrames 	0
scalar CoverageNetwork502.node21.nic.mac 	nbDroppedFrames 	0
scalar CoverageNetwork502.node21.nic.mac 	nbMissedAcks 	0
scalar CoverageNetwork502.node21.nic.mac 	nbRecvdAcks 	0
scalar CoverageNetwork502.node21.nic.mac 	nbTxAcks 	0
scalar CoverageNetwork502.node21.nic.mac 	nbDuplicates 	0
scalar CoverageNetwork502.node21.nic.mac 	meanBackoff 	0.0015010909090909
scalar CoverageNetwork502.node21.nic.mac 	nbBackoffs 	55
scalar CoverageNetwork502.node21.nic.mac 	backoffDurations 	0.08256
scalar CoverageNetwork502.node21.nic.phy 	nbFramesWithInterference 	6
scalar CoverageNetwork502.node21.nic.phy 	nbFramesWithoutInterference 	65
scalar CoverageNetwork502.node21.nic.phy 	nbFramesWithInterferencePartial 	0
scalar CoverageNetwork502.node21.nic.phy 	nbFramesWithoutInterferencePartial 	0
scalar CoverageNetwork502.node21.nic.phy 	nbFramesWithInterferenceDropped 	2
scalar CoverageNetwork502.node21.nic.phy 	nbFramesWithoutInterferenceDropped 	0
scalar CoverageNetwork502.node21.tranl 	nbAggrPktReceived 	0
scalar CoverageNetwork502.node21.tranl 	"nbAggrPktSentDown " 	0
scalar CoverageNetwork502.node21.appl 	"activity duration" 	-1
attr unit  s
scalar CoverageNetwork502.node21.appl 	firstPacketGeneration 	-1
attr unit  s
scalar CoverageNetwork502.node21.appl 	lastPacketReception 	-2
attr unit  s
scalar CoverageNetwork502.node21.appl 	nbPacketsSent 	0
scalar CoverageNetwork502.node21.appl 	nbPacketsReceived 	0
statistic CoverageNetwork502.node21.appl 	latency
field count 0
field mean nan
field stddev nan
field sum 0
field sqrsum 0
field min nan
field max nan
scalar CoverageNetwork502.node21.batteryStats 	nominal 	180
attr unit  mW-s
scalar CoverageNetwork502.node21.batteryStats 	total 	0.40175904000014
attr unit  mW-s
scalar CoverageNetwork502.node21.batteryStats 	lifetime 	-1
attr unit  s
scalar CoverageNetwork502.node21.batteryStats 	"Mean power consumption" 	1.8667712437744
attr unit  mW
scalar CoverageNetwork502.node22.nic.mac 	nbTxFrames 	32
scalar CoverageNetwork502.node22.nic.mac 	nbRxFrames 	0
scalar CoverageNetwork502.node22.nic.mac 	nbDroppedFrames 	0
scalar CoverageNetwork502.node22.nic.mac 	nbMissedAcks 	0
scalar CoverageNetwork502.node22.nic.mac 	nbRecvdAcks 	0
scalar CoverageNetwork502.node22.nic.mac 	nbTxAcks 	0
scalar CoverageNetwork502.node22.nic.mac 	nbDuplicates 	0
scalar CoverageNetwork502.node22.nic.mac 	meanBackoff 	0.0020440816326531
scalar CoverageNetwork502.node22.nic.mac 	nbBackoffs 	49
scalar CoverageNetwork502.node22.nic.mac 	backoffDurations 	0.10016
scalar CoverageNetwork502.node22.nic.phy 	nbFramesWithInterference 	13
scalar CoverageNetwork502.node22.nic.phy 	nbFramesWithoutInterference 	69
scalar CoverageNetwork502.node22.nic.phy 	nbFramesWithInterferencePartial 	0
scalar CoverageNetwork502.node22.nic.phy 	nbFramesWithoutInterferencePartial 	0
scalar CoverageNetwork502.node22.nic.phy 	nbFramesWithInterferenceDropped 	5
scalar CoverageNetwork502.node22.nic.phy 	nbFramesWithoutInterferenceDropped 	0
scalar CoverageNetwork502.node22.tranl 	nbAggrPktReceived 	0
scalar CoverageNetwork502.node22.tranl 	"nbAggrPktSentDown " 	0
scalar CoverageNetwork502.node22.appl 	"activity duration" 	-1
attr unit  s
scalar CoverageNetwork502.node22.appl 	firstPacketGeneration 	-1
attr unit  s
scalar CoverageNetwork502.node22.appl 	lastPacketReception 	-2
attr unit  s
scalar CoverageNetwork502.node22.appl 	nbPacketsSent 	0
scalar CoverageNetwork502.node22.appl 	nbPacketsReceived 	0
statistic CoverageNetwork502.node22.appl 	latency
field count 0
field mean nan
field stddev nan
field sum 0
field sqrsum 0
field min nan
field max nan
scalar CoverageNetwork502.node22.batteryStats 	nominal 	180
attr unit  mW-s
scalar CoverageNetwork502.node22.batteryStats 	total 	0.40238400000018
attr unit  mW-s
scalar CoverageNetwork502.node22.batteryStats 	lifetime 	-1
attr unit  s
scalar CoverageNetwork502.node22.batteryStats 	"Mean power consumption" 	1.8696751170925
attr unit  mW
scalar CoverageNetwork502.node23.nic.mac 	nbTxFrames 	6
scalar CoverageNetwork502.node23.nic.mac 	nbRxFrames 	0
scalar CoverageNetwork502.node23.nic.mac 	nbDroppedFrames 	0
scalar CoverageNetwork502.node23.nic.mac 	nbMissedAcks 	0
scalar CoverageNetwork502.node23.nic.mac 	nbRecvdAcks 	0
scalar CoverageNetwork502.node23.nic.mac 	nbTxAcks 	0
scalar CoverageNetwork502.node23.nic.mac 	nbDuplicates 	0
scalar CoverageNetwork502.node23.nic.mac 	meanBackoff 	0.0013333333333333
scalar CoverageNetwork502.node23.nic.mac 	nbBackoffs 	6
scalar CoverageNetwork502.node23.nic.mac 	backoffDurations 	0.008
scalar CoverageNetwork502.node23.nic.phy 	nbFramesWithInterference 	0
scalar CoverageNetwork502.node23.nic.phy 	nbFramesWithoutInterference 	4
scalar CoverageNetwork502.node23.nic.phy 	nbFramesWithInterferencePartial 	0
scalar CoverageNetwork502.node23.nic.phy 	nbFramesWithoutInterferencePartial 	0
scalar CoverageNetwork502.node23.nic.phy 	nbFramesWithInterferenceDropped 	0
scalar CoverageNetwork502.node23.nic.phy 	nbFramesWithoutInterferenceDropped 	0
scalar CoverageNetwork502.node23.tranl 	nbAggrPktReceived 	0
scalar CoverageNetwork502.node23.tranl 	"nbAggrPktSentDown " 	0
scalar CoverageNetwork502.node23.appl 	"activity duration" 	-1
attr unit  s
scalar CoverageNetwork502.node23.appl 	firstPacketGeneration 	-1
attr unit  s
scalar CoverageNetwork502.node23.appl 	lastPacketReception 	-2
attr unit  s
scalar CoverageNetwork502.node23.appl 	nbPacketsSent 	0
scalar CoverageNetwork502.node23.appl 	nbPacketsReceived 	0
statistic CoverageNetwork502.node23.appl 	latency
field count 0
field mean nan
field stddev nan
field sum 0
field sqrsum 0
field min nan
field max nan
scalar CoverageNetwork502.node23.batteryStats 	nominal 	180
attr unit  mW-s
scalar CoverageNetwork502.node23.batteryStats 	total 	0.40418944000001
attr unit  mW-s
scalar CoverageNetwork502.node23.batteryStats 	lifetime 	-1
attr unit  s
scalar CoverageNetwork502.node23.batteryStats 	"Mean power consumption" 	1.8780640844547
attr unit  mW
scalar CoverageNetwork502.node24.nic.mac 	nbTxFrames 	6
scalar CoverageNetwork502.node24.nic.mac 	nbRxFrames 	0
scalar CoverageNetwork502.node24.nic.mac 	nbDroppedFrames 	0
scalar CoverageNetwork502.node24.nic.mac 	nbMissedAcks 	0
scalar CoverageNetwork502.node24.nic.mac 	nbRecvdAcks 	0
scalar CoverageNetwork502.node24.nic.mac 	nbTxAcks 	0
scalar CoverageNetwork502.node24.nic.mac 	nbDuplicates 	0
scalar CoverageNetwork502.node24.nic.mac 	meanBackoff 	0.00112
scalar CoverageNetwork502.node24.nic.mac 	nbBackoffs 	6
scalar CoverageNetwork502.node24.nic.mac 	backoffDurations 	0.00672
scalar CoverageNetwork502.node24.nic.phy 	nbFramesWithInterference 	0
scalar CoverageNetwork502.node24.nic.phy 	nbFramesWithoutInterference 	0
scalar CoverageNetwork502.node24.nic.phy 	nbFramesWithInterferencePartial 	0
scalar CoverageNetwork502.node24.nic.phy 	nbFramesWithoutInterferencePartial 	0
scalar CoverageNetwork502.node24.nic.phy 	nbFramesWithInterferenceDropped 	0
scalar CoverageNetwork502.node24.nic.phy 	nbFramesWithoutInterferenceDropped 	0
scalar CoverageNetwork502.node24.tranl 	nbAggrPktReceived 	0
scalar CoverageNetwork502.node24.tranl 	"nbAggrPktSentDown " 	0
scalar CoverageNetwork502.node24.appl 	"activity duration" 	-1
attr unit  s
scalar CoverageNetwork502.node24.appl 	firstPacketGeneration 	-1
attr unit  s
scalar CoverageNetwork502.node24.appl 	lastPacketReception 	-2
attr unit  s
scalar CoverageNetwork502.node24.appl 	nbPacketsSent 	0
scalar CoverageNetwork502.node24.appl 	nbPacketsReceived 	0
statistic CoverageNetwork502.node24.appl 	latency
field count 0
field mean nan
field stddev nan
field sum 0
field sqrsum 0
field min nan
field max nan
scalar CoverageNetwork502.node24.batteryStats 	nominal 	180
attr unit  mW-s
scalar CoverageNetwork502.node24.batteryStats 	total 	0.40418944000004
attr unit  mW-s
scalar CoverageNetwork502.node24.batteryStats 	lifetime 	-1
attr unit  s
scalar CoverageNetwork502.node24.batteryStats 	"Mean power consumption" 	1.8780640844549
attr unit  mW
scalar CoverageNetwork502.node25.nic.mac 	nbTxFrames 	36
scalar CoverageNetwork502.node25.nic.mac 	nbRxFrames 	7
scalar CoverageNetwork502.node25.nic.mac 	nbDroppedFrames 	0
scalar CoverageNetwork502.node25.nic.mac 	nbMissedAcks 	0
scalar CoverageNetwork502.node25.nic.mac 	nbRecvdAcks 	0
scalar CoverageNetwork502.node25.nic.mac 	nbTxAcks 	0
scalar CoverageNetwork502.node25.nic.mac 	nbDuplicates 	0
scalar CoverageNetwork502.node25.nic.mac 	meanBackoff 	0.001463829787234
scalar CoverageNetwork502.node25.nic.mac 	nbBackoffs 	47
scalar CoverageNetwork502.node25.nic.mac 	backoffDurations 	0.0688
scalar CoverageNetwork502.node25.nic.phy 	nbFramesWithInterference 	3
scalar CoverageNetwork502.node25.nic.phy 	nbFramesWithoutInterference 	47
scalar CoverageNetwork502.node25.nic.phy 	nbFramesWithInterferencePartial 	0
scalar CoverageNetwork502.node25.nic.phy 	nbFramesWithoutInterferencePartial 	0
scalar CoverageNetwork502.node25.nic.phy 	nbFramesWithInterferenceDropped 	2
scalar CoverageNetwork502.node25.nic.phy 	nbFramesWithoutInterferenceDropped 	0
scalar CoverageNetwork502.node25.tranl 	nbAggrPktReceived 	0
scalar CoverageNetwork502.node25.tranl 	"nbAggrPktSentDown " 	0
scalar CoverageNetwork502.node25.appl 	"activity duration" 	-1
attr unit  s
scalar CoverageNetwork502.node25.appl 	firstPacketGeneration 	-1
attr unit  s
scalar CoverageNetwork502.node25.appl 	lastPacketReception 	-2
attr unit  s
scalar CoverageNetwork502.node25.appl 	nbPacketsSent 	0
scalar CoverageNetwork502.node25.appl 	nbPacketsReceived 	0
statistic CoverageNetwork502.node25.appl 	latency
field count 0
field mean nan
field stddev nan
field sum 0
field sqrsum 0
field min nan
field max nan
scalar CoverageNetwork502.node25.batteryStats 	nominal 	180
attr unit  mW-s
scalar CoverageNetwork502.node25.batteryStats 	total 	0.40210624000005
attr unit  mW-s
scalar CoverageNetwork502.node25.batteryStats 	lifetime 	-1
attr unit  s
scalar CoverageNetwork502.node25.batteryStats 	"Mean power consumption" 	1.8683845067284
attr unit  mW
scalar CoverageNetwork502.node26.nic.mac 	nbTxFrames 	6
scalar CoverageNetwork502.node26.nic.mac 	nbRxFrames 	0
scalar CoverageNetwork502.node26.nic.mac 	nbDroppedFrames 	0
scalar CoverageNetwork502.node26.nic.mac 	nbMissedAcks 	0
scalar CoverageNetwork502.node26.nic.mac 	nbRecvdAcks 	0
scalar CoverageNetwork502.node26.nic.mac 	nbTxAcks 	0
scalar CoverageNetwork502.node26.nic.mac 	nbDuplicates 	0
scalar CoverageNetwork502.node26.nic.mac 	meanBackoff 	0.00192
scalar CoverageNetwork502.node26.nic.mac 	nbBackoffs 	8
scalar CoverageNetwork502.node26.nic.mac 	backoffDurations 	0.01536
scalar CoverageNetwork502.node26.nic.phy 	nbFramesWithInterference 	0
scalar CoverageNetwork502.node26.nic.phy 	nbFramesWithoutInterference 	6
scalar CoverageNetwork502.node26.nic.phy 	nbFramesWithInterferencePartial 	0
scalar CoverageNetwork502.node26.nic.phy 	nbFramesWithoutInterferencePartial 	0
scalar CoverageNetwork502.node26.nic.phy 	nbFramesWithInterferenceDropped 	0
scalar CoverageNetwork502.node26.nic.phy 	nbFramesWithoutInterferenceDropped 	0
scalar CoverageNetwork502.node26.tranl 	nbAggrPktReceived 	0
scalar CoverageNetwork502.node26.tranl 	"nbAggrPktSentDown " 	0
scalar CoverageNetwork502.node26.appl 	"activity duration" 	-1
attr unit  s
scalar CoverageNetwork502.node26.appl 	firstPacketGeneration 	-1
attr unit  s
scalar CoverageNetwork502.node26.appl 	lastPacketReception 	-2
attr unit  s
scalar CoverageNetwork502.node26.appl 	nbPacketsSent 	0
scalar CoverageNetwork502.node26.appl 	nbPacketsReceived 	0
statistic CoverageNetwork502.node26.appl 	latency
field count 0
field mean nan
field stddev nan
field sum 0
field sqrsum 0
field min nan
field max nan
scalar CoverageNetwork502.node26.batteryStats 	nominal 	180
attr unit  mW-s
scalar CoverageNetwork502.node26.batteryStats 	total 	0.40418944000001
attr unit  mW-s
scalar CoverageNetwork502.node26.batteryStats 	lifetime 	-1
attr unit  s
scalar CoverageNetwork502.node26.batteryStats 	"Mean power consumption" 	1.8780640844547
attr unit  mW
scalar CoverageNetwork502.node27.nic.mac 	nbTxFrames 	6
scalar CoverageNetwork502.node27.nic.mac 	nbRxFrames 	58
scalar CoverageNetwork502.node27.nic.mac 	nbDroppedFrames 	0
scalar CoverageNetwork502.node27.nic.mac 	nbMissedAcks 	0
scalar CoverageNetwork502.node27.nic.mac 	nbRecvdAcks 	0
scalar CoverageNetwork502.node27.nic.mac 	nbTxAcks 	0
scalar CoverageNetwork502.node27.nic.mac 	nbDuplicates 	0
scalar CoverageNetwork502.node27.nic.mac 	meanBackoff 	0.00128
scalar CoverageNetwork502.node27.nic.mac 	nbBackoffs 	7
scalar CoverageNetwork502.node27.nic.mac 	backoffDurations 	0.00896
scalar CoverageNetwork502.node27.nic.phy 	nbFramesWithInterference 	3
scalar CoverageNetwork502.node27.nic.phy 	nbFramesWithoutInterference 	62
scalar CoverageNetwork502.node27.nic.phy 	nbFramesWithInterferencePartial 	0
scalar CoverageNetwork502.node27.nic.phy 	nbFramesWithoutInterferencePartial 	0
scalar CoverageNetwork502.node27.nic.phy 	nbFramesWithInterferenceDropped 	1
scalar CoverageNetwork502.node27.nic.phy 	nbFramesWithoutInterferenceDropped 	0
scalar CoverageNetwork502.node27.tranl 	nbAggrPktReceived 	0
scalar CoverageNetwork502.node27.tranl 	"nbAggrPktSentDown " 	0
scalar CoverageNetwork502.node27.appl 	"activity duration" 	-1
attr unit  s
scalar CoverageNetwork502.node27.appl 	firstPacketGeneration 	-1
attr unit  s
scalar CoverageNetwork502.node27.appl 	lastPacketReception 	-2
attr unit  s
scalar CoverageNetwork502.node27.appl 	nbPacketsSent 	0
scalar CoverageNetwork502.node27.appl 	nbPacketsReceived 	0
statistic CoverageNetwork502.node27.appl 	latency
field count 0
field mean nan
field stddev nan
field sum 0
field sqrsum 0
field min nan
field max nan
scalar CoverageNetwork502.node27.batteryStats 	nominal 	180
attr unit  mW-s
scalar CoverageNetwork502.node27.batteryStats 	total 	0.40418944000004
attr unit  mW-s
scalar CoverageNetwork502.node27.batteryStats 	lifetime 	-1
attr unit  s
scalar CoverageNetwork502.node27.batteryStats 	"Mean power consumption" 	1.8780640844549
attr unit  mW
scalar CoverageNetwork502.node28.nic.mac 	nbTxFrames 	6
scalar CoverageNetwork502.node28.nic.mac 	nbRxFrames 	0
scalar CoverageNetwork502.node28.nic.mac 	nbDroppedFrames 	0
scalar CoverageNetwork502.node28.nic.mac 	nbMissedAcks 	0
scalar CoverageNetwork502.node28.nic.mac 	nbRecvdAcks 	0
scalar CoverageNetwork502.node28.nic.mac 	nbTxAcks 	0
scalar CoverageNetwork502.node28.nic.mac 	nbDuplicates 	0
scalar CoverageNetwork502.node28.nic.mac 	meanBackoff 	0.00128
scalar CoverageNetwork502.node28.nic.mac 	nbBackoffs 	8
scalar CoverageNetwork502.node28.nic.mac 	backoffDurations 	0.01024
scalar CoverageNetwork502.node28.nic.phy 	nbFramesWithInterference 	0
scalar CoverageNetwork502.node28.nic.phy 	nbFramesWithoutInterference 	5
scalar CoverageNetwork502.node28.nic.phy 	nbFramesWithInterferencePartial 	0
scalar CoverageNetwork502.node28.nic.phy 	nbFramesWithoutInterferencePartial 	0
scalar CoverageNetwork502.node28.nic.phy 	nbFramesWithInterferenceDropped 	0
scalar CoverageNetwork502.node28.nic.phy 	nbFramesWithoutInterferenceDropped 	0
scalar CoverageNetwork502.node28.tranl 	nbAggrPktReceived 	0
scalar CoverageNetwork502.node28.tranl 	"nbAggrPktSentDown " 	0
scalar CoverageNetwork502.node28.appl 	"activity duration" 	-1
attr unit  s
scalar CoverageNetwork502.node28.appl 	firstPacketGeneration 	-1
attr unit  s
scalar CoverageNetwork502.node28.appl 	lastPacketReception 	-2
attr unit  s
scalar CoverageNetwork502.node28.appl 	nbPacketsSent 	0
scalar CoverageNetwork502.node28.appl 	nbPacketsReceived 	0
statistic CoverageNetwork502.node28.appl 	latency
field count 0
field mean nan
field stddev nan
field sum 0
field sqrsum 0
field min nan
field max nan
scalar CoverageNetwork502.node28.batteryStats 	nominal 	180
attr unit  mW-s
scalar CoverageNetwork502.node28.batteryStats 	total 	0.40418944000004
attr unit  mW-s
scalar CoverageNetwork502.node28.batteryStats 	lifetime 	-1
attr unit  s
scalar CoverageNetwork502.node28.batteryStats 	"Mean power consumption" 	1.8780640844549
attr unit  mW
scalar CoverageNetwork502.node29.nic.mac 	nbTxFrames 	40
scalar CoverageNetwork502.node29.nic.mac 	nbRxFrames 	0
scalar CoverageNetwork502.node29.nic.mac 	nbDroppedFrames 	0
scalar CoverageNetwork502.node29.nic.mac 	nbMissedAcks 	0
scalar CoverageNetwork502.node29.nic.mac 	nbRecvdAcks 	0
scalar CoverageNetwork502.node29.nic.mac 	nbTxAcks 	0
scalar CoverageNetwork502.node29.nic.mac 	nbDuplicates 	0
scalar CoverageNetwork502.node29.nic.mac 	meanBackoff 	0.0015534545454545
scalar CoverageNetwork502.node29.nic.mac 	nbBackoffs 	55
scalar CoverageNetwork502.node29.nic.mac 	backoffDurations 	0.08544
scalar CoverageNetwork502.node29.nic.phy 	nbFramesWithInterference 	19
scalar CoverageNetwork502.node29.nic.phy 	nbFramesWithoutInterference 	81
scalar CoverageNetwork502.node29.nic.phy 	nbFramesWithInterferencePartial 	0
scalar CoverageNetwork502.node29.nic.phy 	nbFramesWithoutInterferencePartial 	0
scalar CoverageNetwork502.node29.nic.phy 	nbFramesWithInterferenceDropped 	3
scalar CoverageNetwork502.node29.nic.phy 	nbFramesWithoutInterferenceDropped 	0
scalar CoverageNetwork502.node29.tranl 	nbAggrPktReceived 	0
scalar CoverageNetwork502.node29.tranl 	"nbAggrPktSentDown " 	0
scalar CoverageNetwork502.node29.appl 	"activity duration" 	-1
attr unit  s
scalar CoverageNetwork502.node29.appl 	firstPacketGeneration 	-1
attr unit  s
scalar CoverageNetwork502.node29.appl 	lastPacketReception 	-2
attr unit  s
scalar CoverageNetwork502.node29.appl 	nbPacketsSent 	0
scalar CoverageNetwork502.node29.appl 	nbPacketsReceived 	0
statistic CoverageNetwork502.node29.appl 	latency
field count 0
field mean nan
field stddev nan
field sum 0
field sqrsum 0
field min nan
field max nan
scalar CoverageNetwork502.node29.batteryStats 	nominal 	180
attr unit  mW-s
scalar CoverageNetwork502.node29.batteryStats 	total 	0.40182848000015
attr unit  mW-s
scalar CoverageNetwork502.node29.batteryStats 	lifetime 	-1
attr unit  s
scalar CoverageNetwork502.node29.batteryStats 	"Mean power consumption" 	1.8670938963653
attr unit  mW
scalar CoverageNetwork502.node30.nic.mac 	nbTxFrames 	38
scalar CoverageNetwork502.node30.nic.mac 	nbRxFrames 	10
scalar CoverageNetwork502.node30.nic.mac 	nbDroppedFrames 	0
scalar CoverageNetwork502.node30.nic.mac 	nbMissedAcks 	0
scalar CoverageNetwork502.node30.nic.mac 	nbRecvdAcks 	0
scalar CoverageNetwork502.node30.nic.mac 	nbTxAcks 	0
scalar CoverageNetwork502.node30.nic.mac 	nbDuplicates 	0
scalar CoverageNetwork502.node30.nic.mac 	meanBackoff 	0.0016136170212766
scalar CoverageNetwork502.node30.nic.mac 	nbBackoffs 	47
scalar CoverageNetwork502.node30.nic.mac 	backoffDurations 	0.07584
scalar CoverageNetwork502.node30.nic.phy 	nbFramesWithInterference 	2
scalar CoverageNetwork502.node30.nic.phy 	nbFramesWithoutInterference 	59
scalar CoverageNetwork502.node30.nic.phy 	nbFramesWithInterferencePartial 	0
scalar CoverageNetwork502.node30.nic.phy 	nbFramesWithoutInterferencePartial 	0
scalar CoverageNetwork502.node30.nic.phy 	nbFramesWithInterferenceDropped 	1
scalar CoverageNetwork502.node30.nic.phy 	nbFramesWithoutInterferenceDropped 	0
scalar CoverageNetwork502.node30.tranl 	nbAggrPktReceived 	0
scalar CoverageNetwork502.node30.tranl 	"nbAggrPktSentDown " 	0
scalar CoverageNetwork502.node30.appl 	"activity duration" 	-1
attr unit  s
scalar CoverageNetwork502.node30.appl 	firstPacketGeneration 	-1
attr unit  s
scalar CoverageNetwork502.node30.appl 	lastPacketReception 	-2
attr unit  s
scalar CoverageNetwork502.node30.appl 	nbPacketsSent 	0
scalar CoverageNetwork502.node30.appl 	nbPacketsReceived 	0
statistic CoverageNetwork502.node30.appl 	latency
field count 0
field mean nan
field stddev nan
field sum 0
field sqrsum 0
field min nan
field max nan
scalar CoverageNetwork502.node30.batteryStats 	nominal 	180
attr unit  mW-s
scalar CoverageNetwork502.node30.batteryStats 	total 	0.40196736000024
attr unit  mW-s
scalar CoverageNetwork502.node30.batteryStats 	lifetime 	-1
attr unit  s
scalar CoverageNetwork502.node30.batteryStats 	"Mean power consumption" 	1.8677392015475
attr unit  mW
scalar CoverageNetwork502.node31.nic.mac 	nbTxFrames 	36
scalar CoverageNetwork502.node31.nic.mac 	nbRxFrames 	6
scalar CoverageNetwork502.node31.nic.mac 	nbDroppedFrames 	0
scalar CoverageNetwork502.node31.nic.mac 	nbMissedAcks 	0
scalar CoverageNetwork502.node31.nic.mac 	nbRecvdAcks 	0
scalar CoverageNetwork502.node31.nic.mac 	nbTxAcks 	0
scalar CoverageNetwork502.node31.nic.mac 	nbDuplicates 	0
scalar CoverageNetwork502.node31.nic.mac 	meanBackoff 	0.0016512
scalar CoverageNetwork502.node31.nic.mac 	nbBackoffs 	50
scalar CoverageNetwork502.node31.nic.mac 	backoffDurations 	0.08256
scalar CoverageNetwork502.node31.nic.phy 	nbFramesWithInterference 	5
scalar CoverageNetwork502.node31.nic.phy 	nbFramesWithoutInterference 	59
scalar CoverageNetwork502.node31.nic.phy 	nbFramesWithInterferencePartial 	0
scalar CoverageNetwork502.node31.nic.phy 	nbFramesWithoutInterferencePartial 	0
scalar CoverageNetwork502.node31.nic.phy 	nbFramesWithInterferenceDropped 	0
scalar CoverageNetwork502.node31.nic.phy 	nbFramesWithoutInterferenceDropped 	0
scalar CoverageNetwork502.node31.tranl 	nbAggrPktReceived 	0
scalar CoverageNetwork502.node31.tranl 	"nbAggrPktSentDown " 	0
scalar CoverageNetwork502.node31.appl 	"activity duration" 	-1
attr unit  s
scalar CoverageNetwork502.node31.appl 	firstPacketGeneration 	-1
attr unit  s
scalar CoverageNetwork502.node31.appl 	lastPacketReception 	-2
attr unit  s
scalar CoverageNetwork502.node31.appl 	nbPacketsSent 	0
scalar CoverageNetwork502.node31.appl 	nbPacketsReceived 	0
statistic CoverageNetwork502.node31.appl 	latency
field count 0
field mean nan
field stddev nan
field sum 0
field sqrsum 0
field min nan
field max nan
scalar CoverageNetwork502.node31.batteryStats 	nominal 	180
attr unit  mW-s
scalar CoverageNetwork502.node31.batteryStats 	total 	0.40210624000019
attr unit  mW-s
scalar CoverageNetwork502.node31.batteryStats 	lifetime 	-1
attr unit  s
scalar CoverageNetwork502.node31.batteryStats 	"Mean power consumption" 	1.868384506729
attr unit  mW
scalar CoverageNetwork502.node32.nic.mac 	nbTxFrames 	6
scalar CoverageNetwork502.node32.nic.mac 	nbRxFrames 	9
scalar CoverageNetwork502.node32.nic.mac 	nbDroppedFrames 	0
scalar CoverageNetwork502.node32.nic.mac 	nbMissedAcks 	0
scalar CoverageNetwork502.node32.nic.mac 	nbRecvdAcks 	0
scalar CoverageNetwork502.node32.nic.mac 	nbTxAcks 	0
scalar CoverageNetwork502.node32.nic.mac 	nbDuplicates 	0
scalar CoverageNetwork502.node32.nic.mac 	meanBackoff 	0.00074666666666667
scalar CoverageNetwork502.node32.nic.mac 	nbBackoffs 	6
scalar CoverageNetwork502.node32.nic.mac 	backoffDurations 	0.00448
scalar CoverageNetwork502.node32.nic.phy 	nbFramesWithInterference 	0
scalar CoverageNetwork502.node32.nic.phy 	nbFramesWithoutInterference 	12
scalar CoverageNetwork502.node32.nic.phy 	nbFramesWithInterferencePartial 	0
scalar CoverageNetwork502.node32.nic.phy 	nbFramesWithoutInterferencePartial 	0
scalar CoverageNetwork502.node32.nic.phy 	nbFramesWithInterferenceDropped 	0
scalar CoverageNetwork502.node32.nic.phy 	nbFramesWithoutInterferenceDropped 	0
scalar CoverageNetwork502.node32.tranl 	nbAggrPktReceived 	0
scalar CoverageNetwork502.node32.tranl 	"nbAggrPktSentDown " 	0
scalar CoverageNetwork502.node32.appl 	"activity duration" 	-1
attr unit  s
scalar CoverageNetwork502.node32.appl 	firstPacketGeneration 	-1
attr unit  s
scalar CoverageNetwork502.node32.appl 	lastPacketReception 	-2
attr unit  s
scalar CoverageNetwork502.node32.appl 	nbPacketsSent 	0
scalar CoverageNetwork502.node32.appl 	nbPacketsReceived 	0
statistic CoverageNetwork502.node32.appl 	latency
field count 0
field mean nan
field stddev nan
field sum 0
field sqrsum 0
field min nan
field max nan
scalar CoverageNetwork502.node32.batteryStats 	nominal 	180
attr unit  mW-s
scalar CoverageNetwork502.node32.batteryStats 	total 	0.40418944000007
attr unit  mW-s
scalar CoverageNetwork502.node32.batteryStats 	lifetime 	-1
attr unit  s
scalar CoverageNetwork502.node32.batteryStats 	"Mean power consumption" 	1.878064084455
attr unit  mW
scalar CoverageNetwork502.node33.nic.mac 	nbTxFrames 	6
scalar CoverageNetwork502.node33.nic.mac 	nbRxFrames 	35
scalar CoverageNetwork502.node33.nic.mac 	nbDroppedFrames 	0
scalar CoverageNetwork502.node33.nic.mac 	nbMissedAcks 	0
scalar CoverageNetwork502.node33.nic.mac 	nbRecvdAcks 	0
scalar CoverageNetwork502.node33.nic.mac 	nbTxAcks 	0
scalar CoverageNetwork502.node33.nic.mac 	nbDuplicates 	0
scalar CoverageNetwork502.node33.nic.mac 	meanBackoff 	0.00112
scalar CoverageNetwork502.node33.nic.mac 	nbBackoffs 	6
scalar CoverageNetwork502.node33.nic.mac 	backoffDurations 	0.00672
scalar CoverageNetwork502.node33.nic.phy 	nbFramesWithInterference 	0
scalar CoverageNetwork502.node33.nic.phy 	nbFramesWithoutInterference 	39
scalar CoverageNetwork502.node33.nic.phy 	nbFramesWithInterferencePartial 	0
scalar CoverageNetwork502.node33.nic.phy 	nbFramesWithoutInterferencePartial 	0
scalar CoverageNetwork502.node33.nic.phy 	nbFramesWithInterferenceDropped 	0
scalar CoverageNetwork502.node33.nic.phy 	nbFramesWithoutInterferenceDropped 	0
scalar CoverageNetwork502.node33.tranl 	nbAggrPktReceived 	0
scalar CoverageNetwork502.node33.tranl 	"nbAggrPktSentDown " 	0
scalar CoverageNetwork502.node33.appl 	"activity duration" 	-1
attr unit  s
scalar CoverageNetwork502.node33.appl 	firstPacketGeneration 	-1
attr unit  s
scalar CoverageNetwork502.node33.appl 	lastPacketReception 	-2
attr unit  s
scalar CoverageNetwork502.node33.appl 	nbPacketsSent 	0
scalar CoverageNetwork502.node33.appl 	nbPacketsReceived 	0
statistic CoverageNetwork502.node33.appl 	latency
field count 0
field mean nan
field stddev nan
field sum 0
field sqrsum 0
field min nan
field max nan
scalar CoverageNetwork502.node33.batteryStats 	nominal 	180
attr unit  mW-s
scalar CoverageNetwork502.node33.batteryStats 	total 	0.40418944000001
attr unit  mW-s
scalar CoverageNetwork502.node33.batteryStats 	lifetime 	-1
attr unit  s
scalar CoverageNetwork502.node33.batteryStats 	"Mean power consumption" 	1.8780640844547
attr unit  mW
scalar CoverageNetwork502.node34.nic.mac 	nbTxFrames 	6
scalar CoverageNetwork502.node34.nic.mac 	nbRxFrames 	39
scalar CoverageNetwork502.node34.nic.mac 	nbDroppedFrames 	0
scalar CoverageNetwork502.node34.nic.mac 	nbMissedAcks 	0
scalar CoverageNetwork502.node34.nic.mac 	nbRecvdAcks 	0
scalar CoverageNetwork502.node34.nic.mac 	nbTxAcks 	0
scalar CoverageNetwork502.node34.nic.mac 	nbDuplicates 	0
scalar CoverageNetwork502.node34.nic.mac 	meanBackoff 	0.00074666666666667
scalar CoverageNetwork502.node34.nic.mac 	nbBackoffs 	6
scalar CoverageNetwork502.node34.nic.mac 	backoffDurations 	0.00448
scalar CoverageNetwork502.node34.nic.phy 	nbFramesWithInterference 	0
scalar CoverageNetwork502.node34.nic.phy 	nbFramesWithoutInterference 	43
scalar CoverageNetwork502.node34.nic.phy 	nbFramesWithInterferencePartial 	0
scalar CoverageNetwork502.node34.nic.phy 	nbFramesWithoutInterferencePartial 	0
scalar CoverageNetwork502.node34.nic.phy 	nbFramesWithInterferenceDropped 	0
scalar CoverageNetwork502.node34.nic.phy 	nbFramesWithoutInterferenceDropped 	0
scalar CoverageNetwork502.node34.tranl 	nbAggrPktReceived 	0
scalar CoverageNetwork502.node34.tranl 	"nbAggrPktSentDown " 	0
scalar CoverageNetwork502.node34.appl 	"activity duration" 	-1
attr unit  s
scalar CoverageNetwork502.node34.appl 	firstPacketGeneration 	-1
attr unit  s
scalar CoverageNetwork502.node34.appl 	lastPacketReception 	-2
attr unit  s
scalar CoverageNetwork502.node34.appl 	nbPacketsSent 	0
scalar CoverageNetwork502.node34.appl 	nbPacketsReceived 	0
statistic CoverageNetwork502.node34.appl 	latency
field count 0
field mean nan
field stddev nan
field sum 0
field sqrsum 0
field min nan
field max nan
scalar CoverageNetwork502.node34.batteryStats 	nominal 	180
attr unit  mW-s
scalar CoverageNetwork502.node34.batteryStats 	total 	0.40418944000004
attr unit  mW-s
scalar CoverageNetwork502.node34.batteryStats 	lifetime 	-1
attr unit  s
scalar CoverageNetwork502.node34.batteryStats 	"Mean power consumption" 	1.8780640844549
attr unit  mW
scalar CoverageNetwork502.node35.nic.mac 	nbTxFrames 	44
scalar CoverageNetwork502.node35.nic.mac 	nbRxFrames 	0
scalar CoverageNetwork502.node35.nic.mac 	nbDroppedFrames 	0
scalar CoverageNetwork502.node35.nic.mac 	nbMissedAcks 	0
scalar CoverageNetwork502.node35.nic.mac 	nbRecvdAcks 	0
scalar CoverageNetwork502.node35.nic.mac 	nbTxAcks 	0
scalar CoverageNetwork502.node35.nic.mac 	nbDuplicates 	0
scalar CoverageNetwork502.node35.nic.mac 	meanBackoff 	0.0014545454545455
scalar CoverageNetwork502.node35.nic.mac 	nbBackoffs 	55
scalar CoverageNetwork502.node35.nic.mac 	backoffDurations 	0.08
scalar CoverageNetwork502.node35.nic.phy 	nbFramesWithInterference 	9
scalar CoverageNetwork502.node35.nic.phy 	nbFramesWithoutInterference 	77
scalar CoverageNetwork502.node35.nic.phy 	nbFramesWithInterferencePartial 	0
scalar CoverageNetwork502.node35.nic.phy 	nbFramesWithoutInterferencePartial 	0
scalar CoverageNetwork502.node35.nic.phy 	nbFramesWithInterferenceDropped 	0
scalar CoverageNetwork502.node35.nic.phy 	nbFramesWithoutInterferenceDropped 	0
scalar CoverageNetwork502.node35.tranl 	nbAggrPktReceived 	0
scalar CoverageNetwork502.node35.tranl 	"nbAggrPktSentDown " 	0
scalar CoverageNetwork502.node35.appl 	"activity duration" 	-1
attr unit  s
scalar CoverageNetwork502.node35.appl 	firstPacketGeneration 	-1
attr unit  s
scalar CoverageNetwork502.node35.appl 	lastPacketReception 	-2
attr unit  s
scalar CoverageNetwork502.node35.appl 	nbPacketsSent 	0
scalar CoverageNetwork502.node35.appl 	nbPacketsReceived 	0
statistic CoverageNetwork502.node35.appl 	latency
field count 0
field mean nan
field stddev nan
field sum 0
field sqrsum 0
field min nan
field max nan
scalar CoverageNetwork502.node35.batteryStats 	nominal 	180
attr unit  mW-s
scalar CoverageNetwork502.node35.batteryStats 	total 	0.40155072000019
attr unit  mW-s
scalar CoverageNetwork502.node35.batteryStats 	lifetime 	-1
attr unit  s
scalar CoverageNetwork502.node35.batteryStats 	"Mean power consumption" 	1.8658032860019
attr unit  mW
scalar CoverageNetwork502.node36.nic.mac 	nbTxFrames 	36
scalar CoverageNetwork502.node36.nic.mac 	nbRxFrames 	15
scalar CoverageNetwork502.node36.nic.mac 	nbDroppedFrames 	0
scalar CoverageNetwork502.node36.nic.mac 	nbMissedAcks 	0
scalar CoverageNetwork502.node36.nic.mac 	nbRecvdAcks 	0
scalar CoverageNetwork502.node36.nic.mac 	nbTxAcks 	0
scalar CoverageNetwork502.node36.nic.mac 	nbDuplicates 	0
scalar CoverageNetwork502.node36.nic.mac 	meanBackoff 	0.0015930434782609
scalar CoverageNetwork502.node36.nic.mac 	nbBackoffs 	46
scalar CoverageNetwork502.node36.nic.mac 	backoffDurations 	0.07328
scalar CoverageNetwork502.node36.nic.phy 	nbFramesWithInterference 	5
scalar CoverageNetwork502.node36.nic.phy 	nbFramesWithoutInterference 	55
scalar CoverageNetwork502.node36.nic.phy 	nbFramesWithInterferencePartial 	0
scalar CoverageNetwork502.node36.nic.phy 	nbFramesWithoutInterferencePartial 	0
scalar CoverageNetwork502.node36.nic.phy 	nbFramesWithInterferenceDropped 	1
scalar CoverageNetwork502.node36.nic.phy 	nbFramesWithoutInterferenceDropped 	0
scalar CoverageNetwork502.node36.tranl 	nbAggrPktReceived 	0
scalar CoverageNetwork502.node36.tranl 	"nbAggrPktSentDown " 	0
scalar CoverageNetwork502.node36.appl 	"activity duration" 	-1
attr unit  s
scalar CoverageNetwork502.node36.appl 	firstPacketGeneration 	-1
attr unit  s
scalar CoverageNetwork502.node36.appl 	lastPacketReception 	-2
attr unit  s
scalar CoverageNetwork502.node36.appl 	nbPacketsSent 	0
scalar CoverageNetwork502.node36.appl 	nbPacketsReceived 	0
statistic CoverageNetwork502.node36.appl 	latency
field count 0
field mean nan
field stddev nan
field sum 0
field sqrsum 0
field min nan
field max nan
scalar CoverageNetwork502.node36.batteryStats 	nominal 	180
attr unit  mW-s
scalar CoverageNetwork502.node36.batteryStats 	total 	0.40210624000022
attr unit  mW-s
scalar CoverageNetwork502.node36.batteryStats 	lifetime 	-1
attr unit  s
scalar CoverageNetwork502.node36.batteryStats 	"Mean power consumption" 	1.8683845067292
attr unit  mW
scalar CoverageNetwork502.node37.nic.mac 	nbTxFrames 	33
scalar CoverageNetwork502.node37.nic.mac 	nbRxFrames 	17
scalar CoverageNetwork502.node37.nic.mac 	nbDroppedFrames 	0
scalar CoverageNetwork502.node37.nic.mac 	nbMissedAcks 	0
scalar CoverageNetwork502.node37.nic.mac 	nbRecvdAcks 	0
scalar CoverageNetwork502.node37.nic.mac 	nbTxAcks 	0
scalar CoverageNetwork502.node37.nic.mac 	nbDuplicates 	0
scalar CoverageNetwork502.node37.nic.mac 	meanBackoff 	0.0016574358974359
scalar CoverageNetwork502.node37.nic.mac 	nbBackoffs 	39
scalar CoverageNetwork502.node37.nic.mac 	backoffDurations 	0.06464
scalar CoverageNetwork502.node37.nic.phy 	nbFramesWithInterference 	5
scalar CoverageNetwork502.node37.nic.phy 	nbFramesWithoutInterference 	53
scalar CoverageNetwork502.node37.nic.phy 	nbFramesWithInterferencePartial 	0
scalar CoverageNetwork502.node37.nic.phy 	nbFramesWithoutInterferencePartial 	0
scalar CoverageNetwork502.node37.nic.phy 	nbFramesWithInterferenceDropped 	1
scalar CoverageNetwork502.node37.nic.phy 	nbFramesWithoutInterferenceDropped 	0
scalar CoverageNetwork502.node37.tranl 	nbAggrPktReceived 	0
scalar CoverageNetwork502.node37.tranl 	"nbAggrPktSentDown " 	0
scalar CoverageNetwork502.node37.appl 	"activity duration" 	-1
attr unit  s
scalar CoverageNetwork502.node37.appl 	firstPacketGeneration 	-1
attr unit  s
scalar CoverageNetwork502.node37.appl 	lastPacketReception 	-2
attr unit  s
scalar CoverageNetwork502.node37.appl 	nbPacketsSent 	0
scalar CoverageNetwork502.node37.appl 	nbPacketsReceived 	0
statistic CoverageNetwork502.node37.appl 	latency
field count 0
field mean nan
field stddev nan
field sum 0
field sqrsum 0
field min nan
field max nan
scalar CoverageNetwork502.node37.batteryStats 	nominal 	180
attr unit  mW-s
scalar CoverageNetwork502.node37.batteryStats 	total 	0.40231456000018
attr unit  mW-s
scalar CoverageNetwork502.node37.batteryStats 	lifetime 	-1
attr unit  s
scalar CoverageNetwork502.node37.batteryStats 	"Mean power consumption" 	1.8693524645016
attr unit  mW
scalar CoverageNetwork502.node38.nic.mac 	nbTxFrames 	47
scalar CoverageNetwork502.node38.nic.mac 	nbRxFrames 	0
scalar CoverageNetwork502.node38.nic.mac 	nbDroppedFrames 	0
scalar CoverageNetwork502.node38.nic.mac 	nbMissedAcks 	0
scalar CoverageNetwork502.node38.nic.mac 	nbRecvdAcks 	0
scalar CoverageNetwork502.node38.nic.mac 	nbTxAcks 	0
[...]
scalar CoverageNetwork502.node72.nic.mac 	nbMissedAcks 	0
scalar CoverageNetwork502.node72.nic.mac 	nbRecvdAcks 	0
scalar CoverageNetwork502.node72.nic.mac 	nbTxAcks 	0
scalar CoverageNetwork502.node72.nic.mac 	nbDuplicates 	0
scalar CoverageNetwork502.node72.nic.mac 	meanBackoff 	0.00152
scalar CoverageNetwork502.node72.nic.mac 	nbBackoffs 	8
scalar CoverageNetwork502.node72.nic.mac 	backoffDurations 	0.01216
scalar CoverageNetwork502.node72.nic.phy 	nbFramesWithInterference 	0
scalar CoverageNetwork502.node72.nic.phy 	nbFramesWithoutInterference 	40
scalar CoverageNetwork502.node72.nic.phy 	nbFramesWithInterferencePartial 	0
scalar CoverageNetwork502.node72.nic.phy 	nbFramesWithoutInterferencePartial 	0
scalar CoverageNetwork502.node72.nic.phy 	nbFramesWithInterferenceDropped 	0
scalar CoverageNetwork502.node72.nic.phy 	nbFramesWithoutInterferenceDropped 	0
scalar CoverageNetwork502.node72.tranl 	nbAggrPktReceived 	0
scalar CoverageNetwork502.node72.tranl 	"nbAggrPktSentDown " 	0
scalar CoverageNetwork502.node72.appl 	"activity duration" 	-1
attr unit  s
scalar CoverageNetwork502.node72.appl 	firstPacketGeneration 	-1
attr unit  s
scalar CoverageNetwork502.node72.appl 	lastPacketReception 	-2
attr unit  s
scalar CoverageNetwork502.node72.appl 	nbPacketsSent 	0
scalar CoverageNetwork502.node72.appl 	nbPacketsReceived 	0
statistic CoverageNetwork502.node72.appl 	latency
field count 0
field mean nan
field stddev nan
field sum 0
field sqrsum 0
field min nan
field max nan
scalar CoverageNetwork502.node72.batteryStats 	nominal 	180
attr unit  mW-s
scalar CoverageNetwork502.node72.batteryStats 	total 	0.40418944000001
attr unit  mW-s
scalar CoverageNetwork502.node72.batteryStats 	lifetime 	-1
attr unit  s
scalar CoverageNetwork502.node72.batteryStats 	"Mean power consumption" 	1.8780640844547
attr unit  mW
scalar CoverageNetwork502.node73.nic.mac 	nbTxFrames 	12
scalar CoverageNetwork502.node73.nic.mac 	nbRxFrames 	0
scalar CoverageNetwork502.node73.nic.mac 	nbDroppedFrames 	0
scalar CoverageNetwork502.node73.nic.mac 	nbMissedAcks 	0
scalar CoverageNetwork502.node73.nic.mac 	nbRecvdAcks 	0
scalar CoverageNetwork502.node73.nic.mac 	nbTxAcks 	0
scalar CoverageNetwork502.node73.nic.mac 	nbDuplicates 	0
scalar CoverageNetwork502.node73.nic.mac 	meanBackoff 	0.0015314285714286
scalar CoverageNetwork502.node73.nic.mac 	nbBackoffs 	14
scalar CoverageNetwork502.node73.nic.mac 	backoffDurations 	0.02144
scalar CoverageNetwork502.node73.nic.phy 	nbFramesWithInterference 	3
scalar CoverageNetwork502.node73.nic.phy 	nbFramesWithoutInterference 	6
scalar CoverageNetwork502.node73.nic.phy 	nbFramesWithInterferencePartial 	0
scalar CoverageNetwork502.node73.nic.phy 	nbFramesWithoutInterferencePartial 	0
scalar CoverageNetwork502.node73.nic.phy 	nbFramesWithInterferenceDropped 	0
scalar CoverageNetwork502.node73.nic.phy 	nbFramesWithoutInterferenceDropped 	0
scalar CoverageNetwork502.node73.tranl 	nbAggrPktReceived 	0
scalar CoverageNetwork502.node73.tranl 	"nbAggrPktSentDown " 	0
scalar CoverageNetwork502.node73.appl 	"activity duration" 	-1
attr unit  s
scalar CoverageNetwork502.node73.appl 	firstPacketGeneration 	-1
attr unit  s
scalar CoverageNetwork502.node73.appl 	lastPacketReception 	-2
attr unit  s
scalar CoverageNetwork502.node73.appl 	nbPacketsSent 	0
scalar CoverageNetwork502.node73.appl 	nbPacketsReceived 	0
statistic CoverageNetwork502.node73.appl 	latency
field count 0
field mean nan
field stddev nan
field sum 0
field sqrsum 0
field min nan
field max nan
scalar CoverageNetwork502.node73.batteryStats 	nominal 	180
attr unit  mW-s
scalar CoverageNetwork502.node73.batteryStats 	total 	0.40377280000007
attr unit  mW-s
scalar CoverageNetwork502.node73.batteryStats 	lifetime 	-1
attr unit  s
scalar CoverageNetwork502.node73.batteryStats 	"Mean power consumption" 	1.8761281689097
attr unit  mW
scalar CoverageNetwork502.node74.nic.mac 	nbTxFrames 	6
scalar CoverageNetwork502.node74.nic.mac 	nbRxFrames 	0
scalar CoverageNetwork502.node74.nic.mac 	nbDroppedFrames 	0
scalar CoverageNetwork502.node74.nic.mac 	nbMissedAcks 	0
scalar CoverageNetwork502.node74.nic.mac 	nbRecvdAcks 	0
scalar CoverageNetwork502.node74.nic.mac 	nbTxAcks 	0
scalar CoverageNetwork502.node74.nic.mac 	nbDuplicates 	0
scalar CoverageNetwork502.node74.nic.mac 	meanBackoff 	0.0012266666666667
scalar CoverageNetwork502.node74.nic.mac 	nbBackoffs 	6
scalar CoverageNetwork502.node74.nic.mac 	backoffDurations 	0.00736
scalar CoverageNetwork502.node74.nic.phy 	nbFramesWithInterference 	0
scalar CoverageNetwork502.node74.nic.phy 	nbFramesWithoutInterference 	0
scalar CoverageNetwork502.node74.nic.phy 	nbFramesWithInterferencePartial 	0
scalar CoverageNetwork502.node74.nic.phy 	nbFramesWithoutInterferencePartial 	0
scalar CoverageNetwork502.node74.nic.phy 	nbFramesWithInterferenceDropped 	0
scalar CoverageNetwork502.node74.nic.phy 	nbFramesWithoutInterferenceDropped 	0
scalar CoverageNetwork502.node74.tranl 	nbAggrPktReceived 	0
scalar CoverageNetwork502.node74.tranl 	"nbAggrPktSentDown " 	0
scalar CoverageNetwork502.node74.appl 	"activity duration" 	-1
attr unit  s
scalar CoverageNetwork502.node74.appl 	firstPacketGeneration 	-1
attr unit  s
scalar CoverageNetwork502.node74.appl 	lastPacketReception 	-2
attr unit  s
scalar CoverageNetwork502.node74.appl 	nbPacketsSent 	0
scalar CoverageNetwork502.node74.appl 	nbPacketsReceived 	0
statistic CoverageNetwork502.node74.appl 	latency
field count 0
field mean nan
field stddev nan
field sum 0
field sqrsum 0
field min nan
field max nan
scalar CoverageNetwork502.node74.batteryStats 	nominal 	180
attr unit  mW-s
scalar CoverageNetwork502.node74.batteryStats 	total 	0.40418944000001
attr unit  mW-s
scalar CoverageNetwork502.node74.batteryStats 	lifetime 	-1
attr unit  s
scalar CoverageNetwork502.node74.batteryStats 	"Mean power consumption" 	1.8780640844547
attr unit  mW
scalar CoverageNetwork502.node75.nic.mac 	nbTxFrames 	6
scalar CoverageNetwork502.node75.nic.mac 	nbRxFrames 	31
scalar CoverageNetwork502.node75.nic.mac 	nbDroppedFrames 	0
scalar CoverageNetwork502.node75.nic.mac 	nbMissedAcks 	0
scalar CoverageNetwork502.node75.nic.mac 	nbRecvdAcks 	0
scalar CoverageNetwork502.node75.nic.mac 	nbTxAcks 	0
scalar CoverageNetwork502.node75.nic.mac 	nbDuplicates 	0
scalar CoverageNetwork502.node75.nic.mac 	meanBackoff 	0.00192
scalar CoverageNetwork502.node75.nic.mac 	nbBackoffs 	8
scalar CoverageNetwork502.node75.nic.mac 	backoffDurations 	0.01536
scalar CoverageNetwork502.node75.nic.phy 	nbFramesWithInterference 	0
scalar CoverageNetwork502.node75.nic.phy 	nbFramesWithoutInterference 	42
scalar CoverageNetwork502.node75.nic.phy 	nbFramesWithInterferencePartial 	0
scalar CoverageNetwork502.node75.nic.phy 	nbFramesWithoutInterferencePartial 	0
scalar CoverageNetwork502.node75.nic.phy 	nbFramesWithInterferenceDropped 	0
scalar CoverageNetwork502.node75.nic.phy 	nbFramesWithoutInterferenceDropped 	0
scalar CoverageNetwork502.node75.tranl 	nbAggrPktReceived 	0
scalar CoverageNetwork502.node75.tranl 	"nbAggrPktSentDown " 	0
scalar CoverageNetwork502.node75.appl 	"activity duration" 	-1
attr unit  s
scalar CoverageNetwork502.node75.appl 	firstPacketGeneration 	-1
attr unit  s
scalar CoverageNetwork502.node75.appl 	lastPacketReception 	-2
attr unit  s
scalar CoverageNetwork502.node75.appl 	nbPacketsSent 	0
scalar CoverageNetwork502.node75.appl 	nbPacketsReceived 	0
statistic CoverageNetwork502.node75.appl 	latency
field count 0
field mean nan
field stddev nan
field sum 0
field sqrsum 0
field min nan
field max nan
scalar CoverageNetwork502.node75.batteryStats 	nominal 	180
attr unit  mW-s
scalar CoverageNetwork502.node75.batteryStats 	total 	0.40418944000007
attr unit  mW-s
scalar CoverageNetwork502.node75.batteryStats 	lifetime 	-1
attr unit  s
scalar CoverageNetwork502.node75.batteryStats 	"Mean power consumption" 	1.878064084455
attr unit  mW
scalar CoverageNetwork502.node76.nic.mac 	nbTxFrames 	6
scalar CoverageNetwork502.node76.nic.mac 	nbRxFrames 	0
scalar CoverageNetwork502.node76.nic.mac 	nbDroppedFrames 	0
scalar CoverageNetwork502.node76.nic.mac 	nbMissedAcks 	0
scalar CoverageNetwork502.node76.nic.mac 	nbRecvdAcks 	0
scalar CoverageNetwork502.node76.nic.mac 	nbTxAcks 	0
scalar CoverageNetwork502.node76.nic.mac 	nbDuplicates 	0
scalar CoverageNetwork502.node76.nic.mac 	meanBackoff 	0.00053333333333333
scalar CoverageNetwork502.node76.nic.mac 	nbBackoffs 	6
scalar CoverageNetwork502.node76.nic.mac 	backoffDurations 	0.0032
scalar CoverageNetwork502.node76.nic.phy 	nbFramesWithInterference 	0
scalar CoverageNetwork502.node76.nic.phy 	nbFramesWithoutInterference 	0
scalar CoverageNetwork502.node76.nic.phy 	nbFramesWithInterferencePartial 	0
scalar CoverageNetwork502.node76.nic.phy 	nbFramesWithoutInterferencePartial 	0
scalar CoverageNetwork502.node76.nic.phy 	nbFramesWithInterferenceDropped 	0
scalar CoverageNetwork502.node76.nic.phy 	nbFramesWithoutInterferenceDropped 	0
scalar CoverageNetwork502.node76.tranl 	nbAggrPktReceived 	0
scalar CoverageNetwork502.node76.tranl 	"nbAggrPktSentDown " 	0
scalar CoverageNetwork502.node76.appl 	"activity duration" 	-1
attr unit  s
scalar CoverageNetwork502.node76.appl 	firstPacketGeneration 	-1
attr unit  s
scalar CoverageNetwork502.node76.appl 	lastPacketReception 	-2
attr unit  s
scalar CoverageNetwork502.node76.appl 	nbPacketsSent 	0
scalar CoverageNetwork502.node76.appl 	nbPacketsReceived 	0
statistic CoverageNetwork502.node76.appl 	latency
field count 0
field mean nan
field stddev nan
field sum 0
field sqrsum 0
field min nan
field max nan
scalar CoverageNetwork502.node76.batteryStats 	nominal 	180
attr unit  mW-s
scalar CoverageNetwork502.node76.batteryStats 	total 	0.40418944000007
attr unit  mW-s
scalar CoverageNetwork502.node76.batteryStats 	lifetime 	-1
attr unit  s
scalar CoverageNetwork502.node76.batteryStats 	"Mean power consumption" 	1.878064084455
attr unit  mW
scalar CoverageNetwork502.node77.nic.mac 	nbTxFrames 	6
scalar CoverageNetwork502.node77.nic.mac 	nbRxFrames 	0
scalar CoverageNetwork502.node77.nic.mac 	nbDroppedFrames 	0
scalar CoverageNetwork502.node77.nic.mac 	nbMissedAcks 	0
scalar CoverageNetwork502.node77.nic.mac 	nbRecvdAcks 	0
scalar CoverageNetwork502.node77.nic.mac 	nbTxAcks 	0
scalar CoverageNetwork502.node77.nic.mac 	nbDuplicates 	0
scalar CoverageNetwork502.node77.nic.mac 	meanBackoff 	0.00085333333333333
scalar CoverageNetwork502.node77.nic.mac 	nbBackoffs 	6
scalar CoverageNetwork502.node77.nic.mac 	backoffDurations 	0.00512
scalar CoverageNetwork502.node77.nic.phy 	nbFramesWithInterference 	0
scalar CoverageNetwork502.node77.nic.phy 	nbFramesWithoutInterference 	0
scalar CoverageNetwork502.node77.nic.phy 	nbFramesWithInterferencePartial 	0
scalar CoverageNetwork502.node77.nic.phy 	nbFramesWithoutInterferencePartial 	0
scalar CoverageNetwork502.node77.nic.phy 	nbFramesWithInterferenceDropped 	0
scalar CoverageNetwork502.node77.nic.phy 	nbFramesWithoutInterferenceDropped 	0
scalar CoverageNetwork502.node77.tranl 	nbAggrPktReceived 	0
scalar CoverageNetwork502.node77.tranl 	"nbAggrPktSentDown " 	0
scalar CoverageNetwork502.node77.appl 	"activity duration" 	-1
attr unit  s
scalar CoverageNetwork502.node77.appl 	firstPacketGeneration 	-1
attr unit  s
scalar CoverageNetwork502.node77.appl 	lastPacketReception 	-2
attr unit  s
scalar CoverageNetwork502.node77.appl 	nbPacketsSent 	0
scalar CoverageNetwork502.node77.appl 	nbPacketsReceived 	0
statistic CoverageNetwork502.node77.appl 	latency
field count 0
field mean nan
field stddev nan
field sum 0
field sqrsum 0
field min nan
field max nan
scalar CoverageNetwork502.node77.batteryStats 	nominal 	180
attr unit  mW-s
scalar CoverageNetwork502.node77.batteryStats 	total 	0.40418944000007
attr unit  mW-s
scalar CoverageNetwork502.node77.batteryStats 	lifetime 	-1
attr unit  s
scalar CoverageNetwork502.node77.batteryStats 	"Mean power consumption" 	1.878064084455
attr unit  mW
scalar CoverageNetwork502.node78.nic.mac 	nbTxFrames 	6
scalar CoverageNetwork502.node78.nic.mac 	nbRxFrames 	0
scalar CoverageNetwork502.node78.nic.mac 	nbDroppedFrames 	0
scalar CoverageNetwork502.node78.nic.mac 	nbMissedAcks 	0
scalar CoverageNetwork502.node78.nic.mac 	nbRecvdAcks 	0
scalar CoverageNetwork502.node78.nic.mac 	nbTxAcks 	0
scalar CoverageNetwork502.node78.nic.mac 	nbDuplicates 	0
scalar CoverageNetwork502.node78.nic.mac 	meanBackoff 	0.0016533333333333
scalar CoverageNetwork502.node78.nic.mac 	nbBackoffs 	6
scalar CoverageNetwork502.node78.nic.mac 	backoffDurations 	0.00992
scalar CoverageNetwork502.node78.nic.phy 	nbFramesWithInterference 	0
scalar CoverageNetwork502.node78.nic.phy 	nbFramesWithoutInterference 	0
scalar CoverageNetwork502.node78.nic.phy 	nbFramesWithInterferencePartial 	0
scalar CoverageNetwork502.node78.nic.phy 	nbFramesWithoutInterferencePartial 	0
scalar CoverageNetwork502.node78.nic.phy 	nbFramesWithInterferenceDropped 	0
scalar CoverageNetwork502.node78.nic.phy 	nbFramesWithoutInterferenceDropped 	0
scalar CoverageNetwork502.node78.tranl 	nbAggrPktReceived 	0
scalar CoverageNetwork502.node78.tranl 	"nbAggrPktSentDown " 	0
scalar CoverageNetwork502.node78.appl 	"activity duration" 	-1
attr unit  s
scalar CoverageNetwork502.node78.appl 	firstPacketGeneration 	-1
attr unit  s
scalar CoverageNetwork502.node78.appl 	lastPacketReception 	-2
attr unit  s
scalar CoverageNetwork502.node78.appl 	nbPacketsSent 	0
scalar CoverageNetwork502.node78.appl 	nbPacketsReceived 	0
statistic CoverageNetwork502.node78.appl 	latency
field count 0
field mean nan
field stddev nan
field sum 0
field sqrsum 0
field min nan
field max nan
scalar CoverageNetwork502.node78.batteryStats 	nominal 	180
attr unit  mW-s
scalar CoverageNetwork502.node78.batteryStats 	total 	0.40418944000001
attr unit  mW-s
scalar CoverageNetwork502.node78.batteryStats 	lifetime 	-1
attr unit  s
scalar CoverageNetwork502.node78.batteryStats 	"Mean power consumption" 	1.8780640844547
attr unit  mW
scalar CoverageNetwork502.node79.nic.mac 	nbTxFrames 	6
scalar CoverageNetwork502.node79.nic.mac 	nbRxFrames 	0
scalar CoverageNetwork502.node79.nic.mac 	nbDroppedFrames 	0
scalar CoverageNetwork502.node79.nic.mac 	nbMissedAcks 	0
scalar CoverageNetwork502.node79.nic.mac 	nbRecvdAcks 	0
scalar CoverageNetwork502.node79.nic.mac 	nbTxAcks 	0
scalar CoverageNetwork502.node79.nic.mac 	nbDuplicates 	0
scalar CoverageNetwork502.node79.nic.mac 	meanBackoff 	0.00096
scalar CoverageNetwork502.node79.nic.mac 	nbBackoffs 	6
scalar CoverageNetwork502.node79.nic.mac 	backoffDurations 	0.00576
scalar CoverageNetwork502.node79.nic.phy 	nbFramesWithInterference 	0
scalar CoverageNetwork502.node79.nic.phy 	nbFramesWithoutInterference 	0
scalar CoverageNetwork502.node79.nic.phy 	nbFramesWithInterferencePartial 	0
scalar CoverageNetwork502.node79.nic.phy 	nbFramesWithoutInterferencePartial 	0
scalar CoverageNetwork502.node79.nic.phy 	nbFramesWithInterferenceDropped 	0
scalar CoverageNetwork502.node79.nic.phy 	nbFramesWithoutInterferenceDropped 	0
scalar CoverageNetwork502.node79.tranl 	nbAggrPktReceived 	0
scalar CoverageNetwork502.node79.tranl 	"nbAggrPktSentDown " 	0
scalar CoverageNetwork502.node79.appl 	"activity duration" 	-1
attr unit  s
scalar CoverageNetwork502.node79.appl 	firstPacketGeneration 	-1
attr unit  s
scalar CoverageNetwork502.node79.appl 	lastPacketReception 	-2
attr unit  s
scalar CoverageNetwork502.node79.appl 	nbPacketsSent 	0
scalar CoverageNetwork502.node79.appl 	nbPacketsReceived 	0
statistic CoverageNetwork502.node79.appl 	latency
field count 0
field mean nan
field stddev nan
field sum 0
field sqrsum 0
field min nan
field max nan
scalar CoverageNetwork502.node79.batteryStats 	nominal 	180
attr unit  mW-s
scalar CoverageNetwork502.node79.batteryStats 	total 	0.40418944000004
attr unit  mW-s
scalar CoverageNetwork502.node79.batteryStats 	lifetime 	-1
attr unit  s
scalar CoverageNetwork502.node79.batteryStats 	"Mean power consumption" 	1.8780640844549
attr unit  mW
scalar CoverageNetwork502.node80.nic.mac 	nbTxFrames 	6
scalar CoverageNetwork502.node80.nic.mac 	nbRxFrames 	0
scalar CoverageNetwork502.node80.nic.mac 	nbDroppedFrames 	0
scalar CoverageNetwork502.node80.nic.mac 	nbMissedAcks 	0
scalar CoverageNetwork502.node80.nic.mac 	nbRecvdAcks 	0
scalar CoverageNetwork502.node80.nic.mac 	nbTxAcks 	0
scalar CoverageNetwork502.node80.nic.mac 	nbDuplicates 	0
scalar CoverageNetwork502.node80.nic.mac 	meanBackoff 	0.0013333333333333
scalar CoverageNetwork502.node80.nic.mac 	nbBackoffs 	6
scalar CoverageNetwork502.node80.nic.mac 	backoffDurations 	0.008
scalar CoverageNetwork502.node80.nic.phy 	nbFramesWithInterference 	0
scalar CoverageNetwork502.node80.nic.phy 	nbFramesWithoutInterference 	0
scalar CoverageNetwork502.node80.nic.phy 	nbFramesWithInterferencePartial 	0
scalar CoverageNetwork502.node80.nic.phy 	nbFramesWithoutInterferencePartial 	0
scalar CoverageNetwork502.node80.nic.phy 	nbFramesWithInterferenceDropped 	0
scalar CoverageNetwork502.node80.nic.phy 	nbFramesWithoutInterferenceDropped 	0
scalar CoverageNetwork502.node80.tranl 	nbAggrPktReceived 	0
scalar CoverageNetwork502.node80.tranl 	"nbAggrPktSentDown " 	0
scalar CoverageNetwork502.node80.appl 	"activity duration" 	-1
attr unit  s
scalar CoverageNetwork502.node80.appl 	firstPacketGeneration 	-1
attr unit  s
scalar CoverageNetwork502.node80.appl 	lastPacketReception 	-2
attr unit  s
scalar CoverageNetwork502.node80.appl 	nbPacketsSent 	0
scalar CoverageNetwork502.node80.appl 	nbPacketsReceived 	0
statistic CoverageNetwork502.node80.appl 	latency
field count 0
field mean nan
field stddev nan
field sum 0
field sqrsum 0
field min nan
field max nan
scalar CoverageNetwork502.node80.batteryStats 	nominal 	180
attr unit  mW-s
scalar CoverageNetwork502.node80.batteryStats 	total 	0.40418944000004
attr unit  mW-s
scalar CoverageNetwork502.node80.batteryStats 	lifetime 	-1
attr unit  s
scalar CoverageNetwork502.node80.batteryStats 	"Mean power consumption" 	1.8780640844549
attr unit  mW
scalar CoverageNetwork502.node81.nic.mac 	nbTxFrames 	6
scalar CoverageNetwork502.node81.nic.mac 	nbRxFrames 	0
scalar CoverageNetwork502.node81.nic.mac 	nbDroppedFrames 	0
scalar CoverageNetwork502.node81.nic.mac 	nbMissedAcks 	0
scalar CoverageNetwork502.node81.nic.mac 	nbRecvdAcks 	0
scalar CoverageNetwork502.node81.nic.mac 	nbTxAcks 	0
scalar CoverageNetwork502.node81.nic.mac 	nbDuplicates 	0
scalar CoverageNetwork502.node81.nic.mac 	meanBackoff 	0.00058666666666667
scalar CoverageNetwork502.node81.nic.mac 	nbBackoffs 	6
scalar CoverageNetwork502.node81.nic.mac 	backoffDurations 	0.00352
scalar CoverageNetwork502.node81.nic.phy 	nbFramesWithInterference 	0
scalar CoverageNetwork502.node81.nic.phy 	nbFramesWithoutInterference 	0
scalar CoverageNetwork502.node81.nic.phy 	nbFramesWithInterferencePartial 	0
scalar CoverageNetwork502.node81.nic.phy 	nbFramesWithoutInterferencePartial 	0
scalar CoverageNetwork502.node81.nic.phy 	nbFramesWithInterferenceDropped 	0
scalar CoverageNetwork502.node81.nic.phy 	nbFramesWithoutInterferenceDropped 	0
scalar CoverageNetwork502.node81.tranl 	nbAggrPktReceived 	0
scalar CoverageNetwork502.node81.tranl 	"nbAggrPktSentDown " 	0
scalar CoverageNetwork502.node81.appl 	"activity duration" 	-1
attr unit  s
scalar CoverageNetwork502.node81.appl 	firstPacketGeneration 	-1
attr unit  s
scalar CoverageNetwork502.node81.appl 	lastPacketReception 	-2
attr unit  s
scalar CoverageNetwork502.node81.appl 	nbPacketsSent 	0
scalar CoverageNetwork502.node81.appl 	nbPacketsReceived 	0
statistic CoverageNetwork502.node81.appl 	latency
field count 0
field mean nan
field stddev nan
field sum 0
field sqrsum 0
field min nan
field max nan
scalar CoverageNetwork502.node81.batteryStats 	nominal 	180
attr unit  mW-s
scalar CoverageNetwork502.node81.batteryStats 	total 	0.40418944000004
attr unit  mW-s
scalar CoverageNetwork502.node81.batteryStats 	lifetime 	-1
attr unit  s
scalar CoverageNetwork502.node81.batteryStats 	"Mean power consumption" 	1.8780640844549
attr unit  mW
