version 2
run General-0-20151229-13:02:25-2988
attr configname General
attr datetime 20151229-13:02:25
attr experiment General
attr inifile omnetpp.ini
attr iterationvars ""
attr iterationvars2 $repetition=0
attr measurement ""
attr network GeoRoutingNetwork2002
attr processid 2988
attr repetition 0
attr replication #0
attr resultdir results
attr runnumber 0
attr seedset 0

scalar GeoRoutingNetwork2002.node1.netwl 	"Initial Power" 	18
scalar GeoRoutingNetwork2002.node2.netwl 	"Initial Power" 	18
scalar GeoRoutingNetwork2002.node3.netwl 	"Initial Power" 	18
scalar GeoRoutingNetwork2002.node4.netwl 	"Initial Power" 	18
scalar GeoRoutingNetwork2002.node5.netwl 	"Initial Power" 	18
scalar GeoRoutingNetwork2002.node6.netwl 	"Initial Power" 	18
scalar GeoRoutingNetwork2002.node7.netwl 	"Initial Power" 	18
scalar GeoRoutingNetwork2002.node8.netwl 	"Initial Power" 	18
scalar GeoRoutingNetwork2002.node9.netwl 	"Initial Power" 	18
scalar GeoRoutingNetwork2002.node10.netwl 	"Initial Power" 	18
scalar GeoRoutingNetwork2002.node11.netwl 	"Initial Power" 	18
scalar GeoRoutingNetwork2002.node12.netwl 	"Initial Power" 	18
scalar GeoRoutingNetwork2002.node13.netwl 	"Initial Power" 	18
scalar GeoRoutingNetwork2002.node14.netwl 	"Initial Power" 	18
scalar GeoRoutingNetwork2002.node15.netwl 	"Initial Power" 	18
scalar GeoRoutingNetwork2002.node16.netwl 	"Initial Power" 	18
scalar GeoRoutingNetwork2002.node17.netwl 	"Initial Power" 	18
scalar GeoRoutingNetwork2002.node18.netwl 	"Initial Power" 	18
scalar GeoRoutingNetwork2002.node19.netwl 	"Initial Power" 	18
scalar GeoRoutingNetwork2002.node20.netwl 	"Initial Power" 	18
scalar GeoRoutingNetwork2002.node21.netwl 	"Initial Power" 	18
scalar GeoRoutingNetwork2002.node22.netwl 	"Initial Power" 	18
scalar GeoRoutingNetwork2002.node23.netwl 	"Initial Power" 	18
scalar GeoRoutingNetwork2002.node24.netwl 	"Initial Power" 	18
scalar GeoRoutingNetwork2002.node25.netwl 	"Initial Power" 	18
scalar GeoRoutingNetwork2002.node26.netwl 	"Initial Power" 	18
scalar GeoRoutingNetwork2002.node27.netwl 	"Initial Power" 	18
scalar GeoRoutingNetwork2002.node28.netwl 	"Initial Power" 	18
scalar GeoRoutingNetwork2002.node29.netwl 	"Initial Power" 	18
scalar GeoRoutingNetwork2002.node30.netwl 	"Initial Power" 	18
scalar GeoRoutingNetwork2002.node31.netwl 	"Initial Power" 	18
scalar GeoRoutingNetwork2002.node32.netwl 	"Initial Power" 	18
scalar GeoRoutingNetwork2002.node33.netwl 	"Initial Power" 	18
scalar GeoRoutingNetwork2002.node34.netwl 	"Initial Power" 	18
scalar GeoRoutingNetwork2002.node35.netwl 	"Initial Power" 	18
scalar GeoRoutingNetwork2002.node36.netwl 	"Initial Power" 	18
scalar GeoRoutingNetwork2002.node37.netwl 	"Initial Power" 	18
scalar GeoRoutingNetwork2002.node38.netwl 	"Initial Power" 	18
scalar GeoRoutingNetwork2002.node39.netwl 	"Initial Power" 	18
scalar GeoRoutingNetwork2002.node40.netwl 	"Initial Power" 	18
scalar GeoRoutingNetwork2002.node41.netwl 	"Initial Power" 	18
scalar GeoRoutingNetwork2002.node42.netwl 	"Initial Power" 	18
scalar GeoRoutingNetwork2002.node43.netwl 	"Initial Power" 	18
scalar GeoRoutingNetwork2002.node44.netwl 	"Initial Power" 	18
scalar GeoRoutingNetwork2002.node45.netwl 	"Initial Power" 	18
scalar GeoRoutingNetwork2002.node46.netwl 	"Initial Power" 	18
scalar GeoRoutingNetwork2002.node47.netwl 	"Initial Power" 	18
scalar GeoRoutingNetwork2002.node48.netwl 	"Initial Power" 	18
scalar GeoRoutingNetwork2002.node49.netwl 	"Initial Power" 	18
scalar GeoRoutingNetwork2002.node50.netwl 	"Initial Power" 	18
scalar GeoRoutingNetwork2002.node51.netwl 	"Initial Power" 	18
scalar GeoRoutingNetwork2002.node52.netwl 	"Initial Power" 	18
scalar GeoRoutingNetwork2002.node53.netwl 	"Initial Power" 	18
scalar GeoRoutingNetwork2002.node54.netwl 	"Initial Power" 	18
scalar GeoRoutingNetwork2002.node55.netwl 	"Initial Power" 	18
scalar GeoRoutingNetwork2002.node56.netwl 	"Initial Power" 	18
scalar GeoRoutingNetwork2002.node57.netwl 	"Initial Power" 	18
scalar GeoRoutingNetwork2002.node58.netwl 	"Initial Power" 	18
scalar GeoRoutingNetwork2002.node59.netwl 	"Initial Power" 	18
scalar GeoRoutingNetwork2002.node60.netwl 	"Initial Power" 	18
scalar GeoRoutingNetwork2002.node61.netwl 	"Initial Power" 	18
scalar GeoRoutingNetwork2002.node62.netwl 	"Initial Power" 	18
scalar GeoRoutingNetwork2002.node63.netwl 	"Initial Power" 	18
scalar GeoRoutingNetwork2002.node64.netwl 	"Initial Power" 	18
scalar GeoRoutingNetwork2002.node65.netwl 	"Initial Power" 	18
scalar GeoRoutingNetwork2002.node66.netwl 	"Initial Power" 	18
scalar GeoRoutingNetwork2002.node67.netwl 	"Initial Power" 	18
scalar GeoRoutingNetwork2002.node68.netwl 	"Initial Power" 	18
scalar GeoRoutingNetwork2002.node69.netwl 	"Initial Power" 	18
scalar GeoRoutingNetwork2002.node70.netwl 	"Initial Power" 	18
scalar GeoRoutingNetwork2002.node71.netwl 	"Initial Power" 	18
scalar GeoRoutingNetwork2002.node72.netwl 	"Initial Power" 	18
scalar GeoRoutingNetwork2002.node73.netwl 	"Initial Power" 	18
scalar GeoRoutingNetwork2002.node74.netwl 	"Initial Power" 	18
scalar GeoRoutingNetwork2002.node75.netwl 	"Initial Power" 	18
scalar GeoRoutingNetwork2002.node76.netwl 	"Initial Power" 	18
scalar GeoRoutingNetwork2002.node77.netwl 	"Initial Power" 	18
scalar GeoRoutingNetwork2002.node78.netwl 	"Initial Power" 	18
scalar GeoRoutingNetwork2002.node79.netwl 	"Initial Power" 	18
scalar GeoRoutingNetwork2002.node80.netwl 	"Initial Power" 	18
scalar GeoRoutingNetwork2002.node81.netwl 	"Initial Power" 	18
scalar GeoRoutingNetwork2002.node82.netwl 	"Initial Power" 	18
scalar GeoRoutingNetwork2002.node83.netwl 	"Initial Power" 	18
scalar GeoRoutingNetwork2002.node84.netwl 	"Initial Power" 	18
scalar GeoRoutingNetwork2002.node85.netwl 	"Initial Power" 	18
scalar GeoRoutingNetwork2002.node86.netwl 	"Initial Power" 	18
scalar GeoRoutingNetwork2002.node87.netwl 	"Initial Power" 	18
scalar GeoRoutingNetwork2002.node88.netwl 	"Initial Power" 	18
scalar GeoRoutingNetwork2002.node89.netwl 	"Initial Power" 	18
scalar GeoRoutingNetwork2002.node90.netwl 	"Initial Power" 	18
scalar GeoRoutingNetwork2002.node91.netwl 	"Initial Power" 	18
scalar GeoRoutingNetwork2002.node92.netwl 	"Initial Power" 	18
scalar GeoRoutingNetwork2002.node93.netwl 	"Initial Power" 	18
scalar GeoRoutingNetwork2002.node94.netwl 	"Initial Power" 	18
scalar GeoRoutingNetwork2002.node95.netwl 	"Initial Power" 	18
scalar GeoRoutingNetwork2002.node96.netwl 	"Initial Power" 	18
scalar GeoRoutingNetwork2002.node97.netwl 	"Initial Power" 	18
scalar GeoRoutingNetwork2002.node98.netwl 	"Initial Power" 	18
scalar GeoRoutingNetwork2002.node99.netwl 	"Initial Power" 	18
scalar GeoRoutingNetwork2002.node100.netwl 	"Initial Power" 	18
scalar GeoRoutingNetwork2002.node101.netwl 	"Initial Power" 	18
scalar GeoRoutingNetwork2002.node102.netwl 	"Initial Power" 	18
scalar GeoRoutingNetwork2002.node103.netwl 	"Initial Power" 	18
scalar GeoRoutingNetwork2002.node104.netwl 	"Initial Power" 	18
scalar GeoRoutingNetwork2002.node105.netwl 	"Initial Power" 	18
scalar GeoRoutingNetwork2002.node106.netwl 	"Initial Power" 	18
scalar GeoRoutingNetwork2002.node107.netwl 	"Initial Power" 	18
scalar GeoRoutingNetwork2002.node108.netwl 	"Initial Power" 	18
scalar GeoRoutingNetwork2002.node109.netwl 	"Initial Power" 	18
scalar GeoRoutingNetwork2002.node110.netwl 	"Initial Power" 	18
scalar GeoRoutingNetwork2002.node111.netwl 	"Initial Power" 	18
scalar GeoRoutingNetwork2002.node112.netwl 	"Initial Power" 	18
scalar GeoRoutingNetwork2002.node113.netwl 	"Initial Power" 	18
scalar GeoRoutingNetwork2002.node114.netwl 	"Initial Power" 	18
scalar GeoRoutingNetwork2002.node115.netwl 	"Initial Power" 	18
scalar GeoRoutingNetwork2002.node116.netwl 	"Initial Power" 	18
scalar GeoRoutingNetwork2002.node117.netwl 	"Initial Power" 	18
scalar GeoRoutingNetwork2002.node118.netwl 	"Initial Power" 	18
scalar GeoRoutingNetwork2002.node119.netwl 	"Initial Power" 	18
scalar GeoRoutingNetwork2002.node120.netwl 	"Initial Power" 	18
scalar GeoRoutingNetwork2002.node121.netwl 	"Initial Power" 	18
scalar GeoRoutingNetwork2002.node122.netwl 	"Initial Power" 	18
scalar GeoRoutingNetwork2002.node123.netwl 	"Initial Power" 	18
scalar GeoRoutingNetwork2002.node124.netwl 	"Initial Power" 	18
scalar GeoRoutingNetwork2002.node125.netwl 	"Initial Power" 	18
scalar GeoRoutingNetwork2002.node126.netwl 	"Initial Power" 	18
scalar GeoRoutingNetwork2002.node127.netwl 	"Initial Power" 	18
scalar GeoRoutingNetwork2002.node128.netwl 	"Initial Power" 	18
scalar GeoRoutingNetwork2002.node129.netwl 	"Initial Power" 	18
scalar GeoRoutingNetwork2002.node130.netwl 	"Initial Power" 	18
scalar GeoRoutingNetwork2002.node131.netwl 	"Initial Power" 	18
scalar GeoRoutingNetwork2002.node132.netwl 	"Initial Power" 	18
scalar GeoRoutingNetwork2002.node133.netwl 	"Initial Power" 	18
scalar GeoRoutingNetwork2002.node134.netwl 	"Initial Power" 	18
scalar GeoRoutingNetwork2002.node135.netwl 	"Initial Power" 	18
scalar GeoRoutingNetwork2002.node136.netwl 	"Initial Power" 	18
scalar GeoRoutingNetwork2002.node137.netwl 	"Initial Power" 	18
scalar GeoRoutingNetwork2002.node138.netwl 	"Initial Power" 	18
scalar GeoRoutingNetwork2002.node139.netwl 	"Initial Power" 	18
scalar GeoRoutingNetwork2002.node140.netwl 	"Initial Power" 	18
scalar GeoRoutingNetwork2002.node141.netwl 	"Initial Power" 	18
scalar GeoRoutingNetwork2002.node142.netwl 	"Initial Power" 	18
scalar GeoRoutingNetwork2002.node143.netwl 	"Initial Power" 	18
scalar GeoRoutingNetwork2002.node144.netwl 	"Initial Power" 	18
scalar GeoRoutingNetwork2002.node145.netwl 	"Initial Power" 	18
scalar GeoRoutingNetwork2002.node146.netwl 	"Initial Power" 	18
scalar GeoRoutingNetwork2002.node147.netwl 	"Initial Power" 	18
scalar GeoRoutingNetwork2002.node148.netwl 	"Initial Power" 	18
scalar GeoRoutingNetwork2002.node149.netwl 	"Initial Power" 	18
scalar GeoRoutingNetwork2002.node150.netwl 	"Initial Power" 	18
scalar GeoRoutingNetwork2002.node151.netwl 	"Initial Power" 	18
scalar GeoRoutingNetwork2002.node152.netwl 	"Initial Power" 	18
scalar GeoRoutingNetwork2002.node153.netwl 	"Initial Power" 	18
scalar GeoRoutingNetwork2002.node154.netwl 	"Initial Power" 	18
scalar GeoRoutingNetwork2002.node155.netwl 	"Initial Power" 	18
scalar GeoRoutingNetwork2002.node156.netwl 	"Initial Power" 	18
scalar GeoRoutingNetwork2002.node157.netwl 	"Initial Power" 	18
scalar GeoRoutingNetwork2002.node158.netwl 	"Initial Power" 	18
scalar GeoRoutingNetwork2002.node159.netwl 	"Initial Power" 	18
scalar GeoRoutingNetwork2002.node160.netwl 	"Initial Power" 	18
scalar GeoRoutingNetwork2002.node161.netwl 	"Initial Power" 	18
scalar GeoRoutingNetwork2002.node162.netwl 	"Initial Power" 	18
scalar GeoRoutingNetwork2002.node163.netwl 	"Initial Power" 	18
scalar GeoRoutingNetwork2002.node164.netwl 	"Initial Power" 	18
scalar GeoRoutingNetwork2002.node165.netwl 	"Initial Power" 	18
scalar GeoRoutingNetwork2002.node166.netwl 	"Initial Power" 	18
scalar GeoRoutingNetwork2002.node167.netwl 	"Initial Power" 	18
scalar GeoRoutingNetwork2002.node168.netwl 	"Initial Power" 	18
scalar GeoRoutingNetwork2002.node169.netwl 	"Initial Power" 	18
scalar GeoRoutingNetwork2002.node170.netwl 	"Initial Power" 	18
scalar GeoRoutingNetwork2002.node171.netwl 	"Initial Power" 	18
scalar GeoRoutingNetwork2002.node172.netwl 	"Initial Power" 	18
scalar GeoRoutingNetwork2002.node173.netwl 	"Initial Power" 	18
scalar GeoRoutingNetwork2002.node174.netwl 	"Initial Power" 	18
scalar GeoRoutingNetwork2002.node175.netwl 	"Initial Power" 	18
scalar GeoRoutingNetwork2002.node176.netwl 	"Initial Power" 	18
scalar GeoRoutingNetwork2002.node177.netwl 	"Initial Power" 	18
scalar GeoRoutingNetwork2002.node178.netwl 	"Initial Power" 	18
scalar GeoRoutingNetwork2002.node179.netwl 	"Initial Power" 	18
scalar GeoRoutingNetwork2002.node180.netwl 	"Initial Power" 	18
scalar GeoRoutingNetwork2002.node181.netwl 	"Initial Power" 	18
scalar GeoRoutingNetwork2002.node182.netwl 	"Initial Power" 	18
scalar GeoRoutingNetwork2002.node183.netwl 	"Initial Power" 	18
scalar GeoRoutingNetwork2002.node184.netwl 	"Initial Power" 	18
scalar GeoRoutingNetwork2002.node185.netwl 	"Initial Power" 	18
scalar GeoRoutingNetwork2002.node186.netwl 	"Initial Power" 	18
scalar GeoRoutingNetwork2002.node187.netwl 	"Initial Power" 	18
scalar GeoRoutingNetwork2002.node188.netwl 	"Initial Power" 	18
scalar GeoRoutingNetwork2002.node189.netwl 	"Initial Power" 	18
scalar GeoRoutingNetwork2002.node190.netwl 	"Initial Power" 	18
scalar GeoRoutingNetwork2002.node191.netwl 	"Initial Power" 	18
scalar GeoRoutingNetwork2002.node192.netwl 	"Initial Power" 	18
scalar GeoRoutingNetwork2002.node193.netwl 	"Initial Power" 	18
scalar GeoRoutingNetwork2002.node194.netwl 	"Initial Power" 	18
scalar GeoRoutingNetwork2002.node195.netwl 	"Initial Power" 	18
scalar GeoRoutingNetwork2002.node196.netwl 	"Initial Power" 	18
scalar GeoRoutingNetwork2002.node197.netwl 	"Initial Power" 	18
scalar GeoRoutingNetwork2002.node198.netwl 	"Initial Power" 	18
scalar GeoRoutingNetwork2002.node199.netwl 	"Initial Power" 	18
scalar GeoRoutingNetwork2002.node200.netwl 	"Initial Power" 	18
scalar GeoRoutingNetwork2002.node1.nic.mac 	nbTxFrames 	6
scalar GeoRoutingNetwork2002.node1.nic.mac 	nbRxFrames 	6
scalar GeoRoutingNetwork2002.node1.nic.mac 	nbDroppedFrames 	0
scalar GeoRoutingNetwork2002.node1.nic.mac 	nbMissedAcks 	0
scalar GeoRoutingNetwork2002.node1.nic.mac 	nbRecvdAcks 	0
scalar GeoRoutingNetwork2002.node1.nic.mac 	nbTxAcks 	0
scalar GeoRoutingNetwork2002.node1.nic.mac 	nbDuplicates 	0
scalar GeoRoutingNetwork2002.node1.nic.mac 	meanBackoff 	0.0016
scalar GeoRoutingNetwork2002.node1.nic.mac 	nbBackoffs 	10
scalar GeoRoutingNetwork2002.node1.nic.mac 	backoffDurations 	0.016
scalar GeoRoutingNetwork2002.node1.nic.phy 	nbFramesWithInterference 	6
scalar GeoRoutingNetwork2002.node1.nic.phy 	nbFramesWithoutInterference 	16
scalar GeoRoutingNetwork2002.node1.nic.phy 	nbFramesWithInterferencePartial 	2
scalar GeoRoutingNetwork2002.node1.nic.phy 	nbFramesWithoutInterferencePartial 	0
scalar GeoRoutingNetwork2002.node1.nic.phy 	nbFramesWithInterferenceDropped 	0
scalar GeoRoutingNetwork2002.node1.nic.phy 	nbFramesWithoutInterferenceDropped 	0
scalar GeoRoutingNetwork2002.node1.netwl 	"Remaining Power" 	17.92494976
scalar GeoRoutingNetwork2002.node1.tranl 	nbAggrPktReceived 	0
scalar GeoRoutingNetwork2002.node1.tranl 	"nbAggrPktSentDown " 	0
scalar GeoRoutingNetwork2002.node1.appl 	"activity duration" 	-1
attr unit  s
scalar GeoRoutingNetwork2002.node1.appl 	firstPacketGeneration 	-1
attr unit  s
scalar GeoRoutingNetwork2002.node1.appl 	lastPacketReception 	-2
attr unit  s
scalar GeoRoutingNetwork2002.node1.appl 	nbPacketsSent 	0
scalar GeoRoutingNetwork2002.node1.appl 	nbPacketsReceived 	0
statistic GeoRoutingNetwork2002.node1.appl 	latency
field count 0
field mean nan
field stddev nan
field sum 0
field sqrsum 0
field min nan
field max nan
scalar GeoRoutingNetwork2002.node1.batteryStats 	nominal 	18
attr unit  mW-s
scalar GeoRoutingNetwork2002.node1.batteryStats 	total 	1.7504376162738
attr unit  mW-s
scalar GeoRoutingNetwork2002.node1.batteryStats 	lifetime 	-1
attr unit  s
scalar GeoRoutingNetwork2002.node1.batteryStats 	"Mean power consumption" 	1.8794516379609
attr unit  mW
scalar GeoRoutingNetwork2002.node2.nic.mac 	nbTxFrames 	6
scalar GeoRoutingNetwork2002.node2.nic.mac 	nbRxFrames 	0
scalar GeoRoutingNetwork2002.node2.nic.mac 	nbDroppedFrames 	0
scalar GeoRoutingNetwork2002.node2.nic.mac 	nbMissedAcks 	0
scalar GeoRoutingNetwork2002.node2.nic.mac 	nbRecvdAcks 	0
scalar GeoRoutingNetwork2002.node2.nic.mac 	nbTxAcks 	0
scalar GeoRoutingNetwork2002.node2.nic.mac 	nbDuplicates 	0
scalar GeoRoutingNetwork2002.node2.nic.mac 	meanBackoff 	0.0025244444444444
scalar GeoRoutingNetwork2002.node2.nic.mac 	nbBackoffs 	9
scalar GeoRoutingNetwork2002.node2.nic.mac 	backoffDurations 	0.02272
scalar GeoRoutingNetwork2002.node2.nic.phy 	nbFramesWithInterference 	5
scalar GeoRoutingNetwork2002.node2.nic.phy 	nbFramesWithoutInterference 	8
scalar GeoRoutingNetwork2002.node2.nic.phy 	nbFramesWithInterferencePartial 	0
scalar GeoRoutingNetwork2002.node2.nic.phy 	nbFramesWithoutInterferencePartial 	0
scalar GeoRoutingNetwork2002.node2.nic.phy 	nbFramesWithInterferenceDropped 	3
scalar GeoRoutingNetwork2002.node2.nic.phy 	nbFramesWithoutInterferenceDropped 	0
scalar GeoRoutingNetwork2002.node2.netwl 	"Remaining Power" 	17.91592576
scalar GeoRoutingNetwork2002.node2.tranl 	nbAggrPktReceived 	0
scalar GeoRoutingNetwork2002.node2.tranl 	"nbAggrPktSentDown " 	0
scalar GeoRoutingNetwork2002.node2.appl 	"activity duration" 	-1
attr unit  s
scalar GeoRoutingNetwork2002.node2.appl 	firstPacketGeneration 	-1
attr unit  s
scalar GeoRoutingNetwork2002.node2.appl 	lastPacketReception 	-2
attr unit  s
scalar GeoRoutingNetwork2002.node2.appl 	nbPacketsSent 	0
scalar GeoRoutingNetwork2002.node2.appl 	nbPacketsReceived 	0
statistic GeoRoutingNetwork2002.node2.appl 	latency
field count 0
field mean nan
field stddev nan
field sum 0
field sqrsum 0
field min nan
field max nan
scalar GeoRoutingNetwork2002.node2.batteryStats 	nominal 	18
attr unit  mW-s
scalar GeoRoutingNetwork2002.node2.batteryStats 	total 	1.7504376162738
attr unit  mW-s
scalar GeoRoutingNetwork2002.node2.batteryStats 	lifetime 	-1
attr unit  s
scalar GeoRoutingNetwork2002.node2.batteryStats 	"Mean power consumption" 	1.8794516379609
attr unit  mW
scalar GeoRoutingNetwork2002.node3.nic.mac 	nbTxFrames 	6
scalar GeoRoutingNetwork2002.node3.nic.mac 	nbRxFrames 	7
scalar GeoRoutingNetwork2002.node3.nic.mac 	nbDroppedFrames 	0
scalar GeoRoutingNetwork2002.node3.nic.mac 	nbMissedAcks 	0
scalar GeoRoutingNetwork2002.node3.nic.mac 	nbRecvdAcks 	0
scalar GeoRoutingNetwork2002.node3.nic.mac 	nbTxAcks 	0
scalar GeoRoutingNetwork2002.node3.nic.mac 	nbDuplicates 	0
scalar GeoRoutingNetwork2002.node3.nic.mac 	meanBackoff 	0.00074666666666667
scalar GeoRoutingNetwork2002.node3.nic.mac 	nbBackoffs 	9
scalar GeoRoutingNetwork2002.node3.nic.mac 	backoffDurations 	0.00672
scalar GeoRoutingNetwork2002.node3.nic.phy 	nbFramesWithInterference 	4
scalar GeoRoutingNetwork2002.node3.nic.phy 	nbFramesWithoutInterference 	16
scalar GeoRoutingNetwork2002.node3.nic.phy 	nbFramesWithInterferencePartial 	0
scalar GeoRoutingNetwork2002.node3.nic.phy 	nbFramesWithoutInterferencePartial 	0
scalar GeoRoutingNetwork2002.node3.nic.phy 	nbFramesWithInterferenceDropped 	1
scalar GeoRoutingNetwork2002.node3.nic.phy 	nbFramesWithoutInterferenceDropped 	0
scalar GeoRoutingNetwork2002.node3.netwl 	"Remaining Power" 	17.94600576
scalar GeoRoutingNetwork2002.node3.tranl 	nbAggrPktReceived 	0
scalar GeoRoutingNetwork2002.node3.tranl 	"nbAggrPktSentDown " 	0
scalar GeoRoutingNetwork2002.node3.appl 	"activity duration" 	-1
attr unit  s
scalar GeoRoutingNetwork2002.node3.appl 	firstPacketGeneration 	-1
attr unit  s
scalar GeoRoutingNetwork2002.node3.appl 	lastPacketReception 	-2
attr unit  s
scalar GeoRoutingNetwork2002.node3.appl 	nbPacketsSent 	0
scalar GeoRoutingNetwork2002.node3.appl 	nbPacketsReceived 	0
statistic GeoRoutingNetwork2002.node3.appl 	latency
field count 0
field mean nan
field stddev nan
field sum 0
field sqrsum 0
field min nan
field max nan
scalar GeoRoutingNetwork2002.node3.batteryStats 	nominal 	18
attr unit  mW-s
scalar GeoRoutingNetwork2002.node3.batteryStats 	total 	1.7504376162738
attr unit  mW-s
scalar GeoRoutingNetwork2002.node3.batteryStats 	lifetime 	-1
attr unit  s
scalar GeoRoutingNetwork2002.node3.batteryStats 	"Mean power consumption" 	1.8794516379609
attr unit  mW
scalar GeoRoutingNetwork2002.node4.nic.mac 	nbTxFrames 	6
scalar GeoRoutingNetwork2002.node4.nic.mac 	nbRxFrames 	0
scalar GeoRoutingNetwork2002.node4.nic.mac 	nbDroppedFrames 	0
scalar GeoRoutingNetwork2002.node4.nic.mac 	nbMissedAcks 	0
scalar GeoRoutingNetwork2002.node4.nic.mac 	nbRecvdAcks 	0
scalar GeoRoutingNetwork2002.node4.nic.mac 	nbTxAcks 	0
scalar GeoRoutingNetwork2002.node4.nic.mac 	nbDuplicates 	0
scalar GeoRoutingNetwork2002.node4.nic.mac 	meanBackoff 	0.0027377777777778
scalar GeoRoutingNetwork2002.node4.nic.mac 	nbBackoffs 	9
scalar GeoRoutingNetwork2002.node4.nic.mac 	backoffDurations 	0.02464
scalar GeoRoutingNetwork2002.node4.nic.phy 	nbFramesWithInterference 	6
scalar GeoRoutingNetwork2002.node4.nic.phy 	nbFramesWithoutInterference 	16
scalar GeoRoutingNetwork2002.node4.nic.phy 	nbFramesWithInterferencePartial 	0
scalar GeoRoutingNetwork2002.node4.nic.phy 	nbFramesWithoutInterferencePartial 	0
scalar GeoRoutingNetwork2002.node4.nic.phy 	nbFramesWithInterferenceDropped 	1
scalar GeoRoutingNetwork2002.node4.nic.phy 	nbFramesWithoutInterferenceDropped 	0
scalar GeoRoutingNetwork2002.node4.netwl 	"Remaining Power" 	17.91231616
scalar GeoRoutingNetwork2002.node4.tranl 	nbAggrPktReceived 	0
scalar GeoRoutingNetwork2002.node4.tranl 	"nbAggrPktSentDown " 	0
scalar GeoRoutingNetwork2002.node4.appl 	"activity duration" 	-1
attr unit  s
scalar GeoRoutingNetwork2002.node4.appl 	firstPacketGeneration 	-1
attr unit  s
scalar GeoRoutingNetwork2002.node4.appl 	lastPacketReception 	-2
attr unit  s
scalar GeoRoutingNetwork2002.node4.appl 	nbPacketsSent 	0
scalar GeoRoutingNetwork2002.node4.appl 	nbPacketsReceived 	0
statistic GeoRoutingNetwork2002.node4.appl 	latency
field count 0
field mean nan
field stddev nan
field sum 0
field sqrsum 0
field min nan
field max nan
scalar GeoRoutingNetwork2002.node4.batteryStats 	nominal 	18
attr unit  mW-s
scalar GeoRoutingNetwork2002.node4.batteryStats 	total 	1.7504376162738
attr unit  mW-s
scalar GeoRoutingNetwork2002.node4.batteryStats 	lifetime 	-1
attr unit  s
scalar GeoRoutingNetwork2002.node4.batteryStats 	"Mean power consumption" 	1.8794516379609
attr unit  mW
scalar GeoRoutingNetwork2002.node5.nic.mac 	nbTxFrames 	6
scalar GeoRoutingNetwork2002.node5.nic.mac 	nbRxFrames 	5
scalar GeoRoutingNetwork2002.node5.nic.mac 	nbDroppedFrames 	0
scalar GeoRoutingNetwork2002.node5.nic.mac 	nbMissedAcks 	0
scalar GeoRoutingNetwork2002.node5.nic.mac 	nbRecvdAcks 	0
scalar GeoRoutingNetwork2002.node5.nic.mac 	nbTxAcks 	0
scalar GeoRoutingNetwork2002.node5.nic.mac 	nbDuplicates 	0
scalar GeoRoutingNetwork2002.node5.nic.mac 	meanBackoff 	0.0011885714285714
scalar GeoRoutingNetwork2002.node5.nic.mac 	nbBackoffs 	7
scalar GeoRoutingNetwork2002.node5.nic.mac 	backoffDurations 	0.00832
scalar GeoRoutingNetwork2002.node5.nic.phy 	nbFramesWithInterference 	2
scalar GeoRoutingNetwork2002.node5.nic.phy 	nbFramesWithoutInterference 	11
scalar GeoRoutingNetwork2002.node5.nic.phy 	nbFramesWithInterferencePartial 	0
scalar GeoRoutingNetwork2002.node5.nic.phy 	nbFramesWithoutInterferencePartial 	0
scalar GeoRoutingNetwork2002.node5.nic.phy 	nbFramesWithInterferenceDropped 	1
scalar GeoRoutingNetwork2002.node5.nic.phy 	nbFramesWithoutInterferenceDropped 	0
scalar GeoRoutingNetwork2002.node5.netwl 	"Remaining Power" 	17.95021696
scalar GeoRoutingNetwork2002.node5.tranl 	nbAggrPktReceived 	0
scalar GeoRoutingNetwork2002.node5.tranl 	"nbAggrPktSentDown " 	0
scalar GeoRoutingNetwork2002.node5.appl 	"activity duration" 	-1
attr unit  s
scalar GeoRoutingNetwork2002.node5.appl 	firstPacketGeneration 	-1
attr unit  s
scalar GeoRoutingNetwork2002.node5.appl 	lastPacketReception 	-2
attr unit  s
scalar GeoRoutingNetwork2002.node5.appl 	nbPacketsSent 	0
scalar GeoRoutingNetwork2002.node5.appl 	nbPacketsReceived 	0
statistic GeoRoutingNetwork2002.node5.appl 	latency
field count 0
field mean nan
field stddev nan
field sum 0
field sqrsum 0
field min nan
field max nan
scalar GeoRoutingNetwork2002.node5.batteryStats 	nominal 	18
attr unit  mW-s
scalar GeoRoutingNetwork2002.node5.batteryStats 	total 	1.7504376162738
attr unit  mW-s
scalar GeoRoutingNetwork2002.node5.batteryStats 	lifetime 	-1
attr unit  s
scalar GeoRoutingNetwork2002.node5.batteryStats 	"Mean power consumption" 	1.8794516379609
attr unit  mW
scalar GeoRoutingNetwork2002.node6.nic.mac 	nbTxFrames 	6
scalar GeoRoutingNetwork2002.node6.nic.mac 	nbRxFrames 	0
scalar GeoRoutingNetwork2002.node6.nic.mac 	nbDroppedFrames 	0
scalar GeoRoutingNetwork2002.node6.nic.mac 	nbMissedAcks 	0
scalar GeoRoutingNetwork2002.node6.nic.mac 	nbRecvdAcks 	0
scalar GeoRoutingNetwork2002.node6.nic.mac 	nbTxAcks 	0
scalar GeoRoutingNetwork2002.node6.nic.mac 	nbDuplicates 	0
scalar GeoRoutingNetwork2002.node6.nic.mac 	meanBackoff 	0.0017066666666667
scalar GeoRoutingNetwork2002.node6.nic.mac 	nbBackoffs 	9
scalar GeoRoutingNetwork2002.node6.nic.mac 	backoffDurations 	0.01536
scalar GeoRoutingNetwork2002.node6.nic.phy 	nbFramesWithInterference 	2
scalar GeoRoutingNetwork2002.node6.nic.phy 	nbFramesWithoutInterference 	9
scalar GeoRoutingNetwork2002.node6.nic.phy 	nbFramesWithInterferencePartial 	2
scalar GeoRoutingNetwork2002.node6.nic.phy 	nbFramesWithoutInterferencePartial 	0
scalar GeoRoutingNetwork2002.node6.nic.phy 	nbFramesWithInterferenceDropped 	3
scalar GeoRoutingNetwork2002.node6.nic.phy 	nbFramesWithoutInterferenceDropped 	0
scalar GeoRoutingNetwork2002.node6.netwl 	"Remaining Power" 	17.92976256
scalar GeoRoutingNetwork2002.node6.tranl 	nbAggrPktReceived 	0
scalar GeoRoutingNetwork2002.node6.tranl 	"nbAggrPktSentDown " 	0
scalar GeoRoutingNetwork2002.node6.appl 	"activity duration" 	-1
attr unit  s
scalar GeoRoutingNetwork2002.node6.appl 	firstPacketGeneration 	-1
attr unit  s
scalar GeoRoutingNetwork2002.node6.appl 	lastPacketReception 	-2
attr unit  s
scalar GeoRoutingNetwork2002.node6.appl 	nbPacketsSent 	0
scalar GeoRoutingNetwork2002.node6.appl 	nbPacketsReceived 	0
statistic GeoRoutingNetwork2002.node6.appl 	latency
field count 0
field mean nan
field stddev nan
field sum 0
field sqrsum 0
field min nan
field max nan
scalar GeoRoutingNetwork2002.node6.batteryStats 	nominal 	18
attr unit  mW-s
scalar GeoRoutingNetwork2002.node6.batteryStats 	total 	1.7504376162738
attr unit  mW-s
scalar GeoRoutingNetwork2002.node6.batteryStats 	lifetime 	-1
attr unit  s
scalar GeoRoutingNetwork2002.node6.batteryStats 	"Mean power consumption" 	1.8794516379609
attr unit  mW
scalar GeoRoutingNetwork2002.node7.nic.mac 	nbTxFrames 	6
scalar GeoRoutingNetwork2002.node7.nic.mac 	nbRxFrames 	6
scalar GeoRoutingNetwork2002.node7.nic.mac 	nbDroppedFrames 	0
scalar GeoRoutingNetwork2002.node7.nic.mac 	nbMissedAcks 	0
scalar GeoRoutingNetwork2002.node7.nic.mac 	nbRecvdAcks 	0
scalar GeoRoutingNetwork2002.node7.nic.mac 	nbTxAcks 	0
scalar GeoRoutingNetwork2002.node7.nic.mac 	nbDuplicates 	0
scalar GeoRoutingNetwork2002.node7.nic.mac 	meanBackoff 	0.00090666666666667
scalar GeoRoutingNetwork2002.node7.nic.mac 	nbBackoffs 	6
scalar GeoRoutingNetwork2002.node7.nic.mac 	backoffDurations 	0.00544
scalar GeoRoutingNetwork2002.node7.nic.phy 	nbFramesWithInterference 	3
scalar GeoRoutingNetwork2002.node7.nic.phy 	nbFramesWithoutInterference 	7
scalar GeoRoutingNetwork2002.node7.nic.phy 	nbFramesWithInterferencePartial 	1
scalar GeoRoutingNetwork2002.node7.nic.phy 	nbFramesWithoutInterferencePartial 	0
scalar GeoRoutingNetwork2002.node7.nic.phy 	nbFramesWithInterferenceDropped 	2
scalar GeoRoutingNetwork2002.node7.nic.phy 	nbFramesWithoutInterferenceDropped 	0
scalar GeoRoutingNetwork2002.node7.netwl 	"Remaining Power" 	17.95924096
scalar GeoRoutingNetwork2002.node7.tranl 	nbAggrPktReceived 	0
scalar GeoRoutingNetwork2002.node7.tranl 	"nbAggrPktSentDown " 	0
scalar GeoRoutingNetwork2002.node7.appl 	"activity duration" 	-1
attr unit  s
scalar GeoRoutingNetwork2002.node7.appl 	firstPacketGeneration 	-1
attr unit  s
scalar GeoRoutingNetwork2002.node7.appl 	lastPacketReception 	-2
attr unit  s
scalar GeoRoutingNetwork2002.node7.appl 	nbPacketsSent 	0
scalar GeoRoutingNetwork2002.node7.appl 	nbPacketsReceived 	0
statistic GeoRoutingNetwork2002.node7.appl 	latency
field count 0
field mean nan
field stddev nan
field sum 0
field sqrsum 0
field min nan
field max nan
scalar GeoRoutingNetwork2002.node7.batteryStats 	nominal 	18
attr unit  mW-s
scalar GeoRoutingNetwork2002.node7.batteryStats 	total 	1.7504376162738
attr unit  mW-s
scalar GeoRoutingNetwork2002.node7.batteryStats 	lifetime 	-1
attr unit  s
scalar GeoRoutingNetwork2002.node7.batteryStats 	"Mean power consumption" 	1.8794516379609
attr unit  mW
scalar GeoRoutingNetwork2002.node8.nic.mac 	nbTxFrames 	6
scalar GeoRoutingNetwork2002.node8.nic.mac 	nbRxFrames 	0
scalar GeoRoutingNetwork2002.node8.nic.mac 	nbDroppedFrames 	0
scalar GeoRoutingNetwork2002.node8.nic.mac 	nbMissedAcks 	0
scalar GeoRoutingNetwork2002.node8.nic.mac 	nbRecvdAcks 	0
scalar GeoRoutingNetwork2002.node8.nic.mac 	nbTxAcks 	0
scalar GeoRoutingNetwork2002.node8.nic.mac 	nbDuplicates 	0
scalar GeoRoutingNetwork2002.node8.nic.mac 	meanBackoff 	0.0017066666666667
scalar GeoRoutingNetwork2002.node8.nic.mac 	nbBackoffs 	9
scalar GeoRoutingNetwork2002.node8.nic.mac 	backoffDurations 	0.01536
scalar GeoRoutingNetwork2002.node8.nic.phy 	nbFramesWithInterference 	2
scalar GeoRoutingNetwork2002.node8.nic.phy 	nbFramesWithoutInterference 	13
scalar GeoRoutingNetwork2002.node8.nic.phy 	nbFramesWithInterferencePartial 	1
scalar GeoRoutingNetwork2002.node8.nic.phy 	nbFramesWithoutInterferencePartial 	0
scalar GeoRoutingNetwork2002.node8.nic.phy 	nbFramesWithInterferenceDropped 	3
scalar GeoRoutingNetwork2002.node8.nic.phy 	nbFramesWithoutInterferenceDropped 	0
scalar GeoRoutingNetwork2002.node8.netwl 	"Remaining Power" 	17.92976256
scalar GeoRoutingNetwork2002.node8.tranl 	nbAggrPktReceived 	0
scalar GeoRoutingNetwork2002.node8.tranl 	"nbAggrPktSentDown " 	0
scalar GeoRoutingNetwork2002.node8.appl 	"activity duration" 	-1
attr unit  s
scalar GeoRoutingNetwork2002.node8.appl 	firstPacketGeneration 	-1
attr unit  s
scalar GeoRoutingNetwork2002.node8.appl 	lastPacketReception 	-2
attr unit  s
scalar GeoRoutingNetwork2002.node8.appl 	nbPacketsSent 	0
scalar GeoRoutingNetwork2002.node8.appl 	nbPacketsReceived 	0
statistic GeoRoutingNetwork2002.node8.appl 	latency
field count 0
field mean nan
field stddev nan
field sum 0
field sqrsum 0
field min nan
field max nan
scalar GeoRoutingNetwork2002.node8.batteryStats 	nominal 	18
attr unit  mW-s
scalar GeoRoutingNetwork2002.node8.batteryStats 	total 	1.7504376162738
attr unit  mW-s
scalar GeoRoutingNetwork2002.node8.batteryStats 	lifetime 	-1
attr unit  s
scalar GeoRoutingNetwork2002.node8.batteryStats 	"Mean power consumption" 	1.8794516379609
attr unit  mW
scalar GeoRoutingNetwork2002.node9.nic.mac 	nbTxFrames 	6
scalar GeoRoutingNetwork2002.node9.nic.mac 	nbRxFrames 	9
scalar GeoRoutingNetwork2002.node9.nic.mac 	nbDroppedFrames 	0
scalar GeoRoutingNetwork2002.node9.nic.mac 	nbMissedAcks 	0
scalar GeoRoutingNetwork2002.node9.nic.mac 	nbRecvdAcks 	0
scalar GeoRoutingNetwork2002.node9.nic.mac 	nbTxAcks 	0
scalar GeoRoutingNetwork2002.node9.nic.mac 	nbDuplicates 	0
scalar GeoRoutingNetwork2002.node9.nic.mac 	meanBackoff 	0.00188
scalar GeoRoutingNetwork2002.node9.nic.mac 	nbBackoffs 	8
scalar GeoRoutingNetwork2002.node9.nic.mac 	backoffDurations 	0.01504
scalar GeoRoutingNetwork2002.node9.nic.phy 	nbFramesWithInterference 	4
scalar GeoRoutingNetwork2002.node9.nic.phy 	nbFramesWithoutInterference 	20
scalar GeoRoutingNetwork2002.node9.nic.phy 	nbFramesWithInterferencePartial 	1
scalar GeoRoutingNetwork2002.node9.nic.phy 	nbFramesWithoutInterferencePartial 	0
scalar GeoRoutingNetwork2002.node9.nic.phy 	nbFramesWithInterferenceDropped 	2
scalar GeoRoutingNetwork2002.node9.nic.phy 	nbFramesWithoutInterferenceDropped 	0
scalar GeoRoutingNetwork2002.node9.netwl 	"Remaining Power" 	17.93397376
scalar GeoRoutingNetwork2002.node9.tranl 	nbAggrPktReceived 	0
scalar GeoRoutingNetwork2002.node9.tranl 	"nbAggrPktSentDown " 	0
scalar GeoRoutingNetwork2002.node9.appl 	"activity duration" 	-1
attr unit  s
scalar GeoRoutingNetwork2002.node9.appl 	firstPacketGeneration 	-1
attr unit  s
scalar GeoRoutingNetwork2002.node9.appl 	lastPacketReception 	-2
attr unit  s
scalar GeoRoutingNetwork2002.node9.appl 	nbPacketsSent 	0
scalar GeoRoutingNetwork2002.node9.appl 	nbPacketsReceived 	0
statistic GeoRoutingNetwork2002.node9.appl 	latency
field count 0
field mean nan
field stddev nan
field sum 0
field sqrsum 0
field min nan
field max nan
scalar GeoRoutingNetwork2002.node9.batteryStats 	nominal 	18
attr unit  mW-s
scalar GeoRoutingNetwork2002.node9.batteryStats 	total 	1.7504376162738
attr unit  mW-s
scalar GeoRoutingNetwork2002.node9.batteryStats 	lifetime 	-1
attr unit  s
scalar GeoRoutingNetwork2002.node9.batteryStats 	"Mean power consumption" 	1.8794516379609
attr unit  mW
scalar GeoRoutingNetwork2002.node10.nic.mac 	nbTxFrames 	6
scalar GeoRoutingNetwork2002.node10.nic.mac 	nbRxFrames 	0
scalar GeoRoutingNetwork2002.node10.nic.mac 	nbDroppedFrames 	0
scalar GeoRoutingNetwork2002.node10.nic.mac 	nbMissedAcks 	0
scalar GeoRoutingNetwork2002.node10.nic.mac 	nbRecvdAcks 	0
scalar GeoRoutingNetwork2002.node10.nic.mac 	nbTxAcks 	0
scalar GeoRoutingNetwork2002.node10.nic.mac 	nbDuplicates 	0
scalar GeoRoutingNetwork2002.node10.nic.mac 	meanBackoff 	0.00228
scalar GeoRoutingNetwork2002.node10.nic.mac 	nbBackoffs 	8
scalar GeoRoutingNetwork2002.node10.nic.mac 	backoffDurations 	0.01824
scalar GeoRoutingNetwork2002.node10.nic.phy 	nbFramesWithInterference 	3
scalar GeoRoutingNetwork2002.node10.nic.phy 	nbFramesWithoutInterference 	9
scalar GeoRoutingNetwork2002.node10.nic.phy 	nbFramesWithInterferencePartial 	0
scalar GeoRoutingNetwork2002.node10.nic.phy 	nbFramesWithoutInterferencePartial 	0
scalar GeoRoutingNetwork2002.node10.nic.phy 	nbFramesWithInterferenceDropped 	1
scalar GeoRoutingNetwork2002.node10.nic.phy 	nbFramesWithoutInterferenceDropped 	0
scalar GeoRoutingNetwork2002.node10.netwl 	"Remaining Power" 	17.92795776
scalar GeoRoutingNetwork2002.node10.tranl 	nbAggrPktReceived 	0
scalar GeoRoutingNetwork2002.node10.tranl 	"nbAggrPktSentDown " 	0
scalar GeoRoutingNetwork2002.node10.appl 	"activity duration" 	-1
attr unit  s
scalar GeoRoutingNetwork2002.node10.appl 	firstPacketGeneration 	-1
attr unit  s
scalar GeoRoutingNetwork2002.node10.appl 	lastPacketReception 	-2
attr unit  s
scalar GeoRoutingNetwork2002.node10.appl 	nbPacketsSent 	0
scalar GeoRoutingNetwork2002.node10.appl 	nbPacketsReceived 	0
statistic GeoRoutingNetwork2002.node10.appl 	latency
field count 0
field mean nan
field stddev nan
field sum 0
field sqrsum 0
field min nan
field max nan
scalar GeoRoutingNetwork2002.node10.batteryStats 	nominal 	18
attr unit  mW-s
scalar GeoRoutingNetwork2002.node10.batteryStats 	total 	1.7504376162738
attr unit  mW-s
scalar GeoRoutingNetwork2002.node10.batteryStats 	lifetime 	-1
attr unit  s
scalar GeoRoutingNetwork2002.node10.batteryStats 	"Mean power consumption" 	1.8794516379609
attr unit  mW
scalar GeoRoutingNetwork2002.node11.nic.mac 	nbTxFrames 	6
scalar GeoRoutingNetwork2002.node11.nic.mac 	nbRxFrames 	11
scalar GeoRoutingNetwork2002.node11.nic.mac 	nbDroppedFrames 	0
scalar GeoRoutingNetwork2002.node11.nic.mac 	nbMissedAcks 	0
scalar GeoRoutingNetwork2002.node11.nic.mac 	nbRecvdAcks 	0
scalar GeoRoutingNetwork2002.node11.nic.mac 	nbTxAcks 	0
scalar GeoRoutingNetwork2002.node11.nic.mac 	nbDuplicates 	0
scalar GeoRoutingNetwork2002.node11.nic.mac 	meanBackoff 	0.0013866666666667
scalar GeoRoutingNetwork2002.node11.nic.mac 	nbBackoffs 	6
scalar GeoRoutingNetwork2002.node11.nic.mac 	backoffDurations 	0.00832
scalar GeoRoutingNetwork2002.node11.nic.phy 	nbFramesWithInterference 	6
scalar GeoRoutingNetwork2002.node11.nic.phy 	nbFramesWithoutInterference 	13
scalar GeoRoutingNetwork2002.node11.nic.phy 	nbFramesWithInterferencePartial 	0
scalar GeoRoutingNetwork2002.node11.nic.phy 	nbFramesWithoutInterferencePartial 	0
scalar GeoRoutingNetwork2002.node11.nic.phy 	nbFramesWithInterferenceDropped 	1
scalar GeoRoutingNetwork2002.node11.nic.phy 	nbFramesWithoutInterferenceDropped 	0
scalar GeoRoutingNetwork2002.node11.netwl 	"Remaining Power" 	17.95382656
scalar GeoRoutingNetwork2002.node11.tranl 	nbAggrPktReceived 	0
scalar GeoRoutingNetwork2002.node11.tranl 	"nbAggrPktSentDown " 	0
scalar GeoRoutingNetwork2002.node11.appl 	"activity duration" 	-1
attr unit  s
scalar GeoRoutingNetwork2002.node11.appl 	firstPacketGeneration 	-1
attr unit  s
scalar GeoRoutingNetwork2002.node11.appl 	lastPacketReception 	-2
attr unit  s
scalar GeoRoutingNetwork2002.node11.appl 	nbPacketsSent 	0
scalar GeoRoutingNetwork2002.node11.appl 	nbPacketsReceived 	0
statistic GeoRoutingNetwork2002.node11.appl 	latency
field count 0
field mean nan
field stddev nan
field sum 0
field sqrsum 0
field min nan
field max nan
scalar GeoRoutingNetwork2002.node11.batteryStats 	nominal 	18
attr unit  mW-s
scalar GeoRoutingNetwork2002.node11.batteryStats 	total 	1.7504376162738
attr unit  mW-s
scalar GeoRoutingNetwork2002.node11.batteryStats 	lifetime 	-1
attr unit  s
scalar GeoRoutingNetwork2002.node11.batteryStats 	"Mean power consumption" 	1.8794516379609
attr unit  mW
scalar GeoRoutingNetwork2002.node12.nic.mac 	nbTxFrames 	6
scalar GeoRoutingNetwork2002.node12.nic.mac 	nbRxFrames 	0
scalar GeoRoutingNetwork2002.node12.nic.mac 	nbDroppedFrames 	0
scalar GeoRoutingNetwork2002.node12.nic.mac 	nbMissedAcks 	0
scalar GeoRoutingNetwork2002.node12.nic.mac 	nbRecvdAcks 	0
scalar GeoRoutingNetwork2002.node12.nic.mac 	nbTxAcks 	0
scalar GeoRoutingNetwork2002.node12.nic.mac 	nbDuplicates 	0
scalar GeoRoutingNetwork2002.node12.nic.mac 	meanBackoff 	0.0027636363636364
scalar GeoRoutingNetwork2002.node12.nic.mac 	nbBackoffs 	11
scalar GeoRoutingNetwork2002.node12.nic.mac 	backoffDurations 	0.0304
scalar GeoRoutingNetwork2002.node12.nic.phy 	nbFramesWithInterference 	2
scalar GeoRoutingNetwork2002.node12.nic.phy 	nbFramesWithoutInterference 	11
scalar GeoRoutingNetwork2002.node12.nic.phy 	nbFramesWithInterferencePartial 	1
scalar GeoRoutingNetwork2002.node12.nic.phy 	nbFramesWithoutInterferencePartial 	0
scalar GeoRoutingNetwork2002.node12.nic.phy 	nbFramesWithInterferenceDropped 	2
scalar GeoRoutingNetwork2002.node12.nic.phy 	nbFramesWithoutInterferenceDropped 	0
scalar GeoRoutingNetwork2002.node12.netwl 	"Remaining Power" 	17.89426816
scalar GeoRoutingNetwork2002.node12.tranl 	nbAggrPktReceived 	0
scalar GeoRoutingNetwork2002.node12.tranl 	"nbAggrPktSentDown " 	0
scalar GeoRoutingNetwork2002.node12.appl 	"activity duration" 	-1
attr unit  s
scalar GeoRoutingNetwork2002.node12.appl 	firstPacketGeneration 	-1
attr unit  s
scalar GeoRoutingNetwork2002.node12.appl 	lastPacketReception 	-2
attr unit  s
scalar GeoRoutingNetwork2002.node12.appl 	nbPacketsSent 	0
scalar GeoRoutingNetwork2002.node12.appl 	nbPacketsReceived 	0
statistic GeoRoutingNetwork2002.node12.appl 	latency
field count 0
field mean nan
field stddev nan
field sum 0
field sqrsum 0
field min nan
field max nan
scalar GeoRoutingNetwork2002.node12.batteryStats 	nominal 	18
attr unit  mW-s
scalar GeoRoutingNetwork2002.node12.batteryStats 	total 	1.7504376162738
attr unit  mW-s
scalar GeoRoutingNetwork2002.node12.batteryStats 	lifetime 	-1
attr unit  s
scalar GeoRoutingNetwork2002.node12.batteryStats 	"Mean power consumption" 	1.8794516379609
attr unit  mW
scalar GeoRoutingNetwork2002.node13.nic.mac 	nbTxFrames 	6
scalar GeoRoutingNetwork2002.node13.nic.mac 	nbRxFrames 	14
scalar GeoRoutingNetwork2002.node13.nic.mac 	nbDroppedFrames 	0
scalar GeoRoutingNetwork2002.node13.nic.mac 	nbMissedAcks 	0
scalar GeoRoutingNetwork2002.node13.nic.mac 	nbRecvdAcks 	0
scalar GeoRoutingNetwork2002.node13.nic.mac 	nbTxAcks 	0
scalar GeoRoutingNetwork2002.node13.nic.mac 	nbDuplicates 	0
scalar GeoRoutingNetwork2002.node13.nic.mac 	meanBackoff 	0.0016
scalar GeoRoutingNetwork2002.node13.nic.mac 	nbBackoffs 	7
scalar GeoRoutingNetwork2002.node13.nic.mac 	backoffDurations 	0.0112
scalar GeoRoutingNetwork2002.node13.nic.phy 	nbFramesWithInterference 	4
scalar GeoRoutingNetwork2002.node13.nic.phy 	nbFramesWithoutInterference 	17
scalar GeoRoutingNetwork2002.node13.nic.phy 	nbFramesWithInterferencePartial 	2
scalar GeoRoutingNetwork2002.node13.nic.phy 	nbFramesWithoutInterferencePartial 	1
scalar GeoRoutingNetwork2002.node13.nic.phy 	nbFramesWithInterferenceDropped 	0
scalar GeoRoutingNetwork2002.node13.nic.phy 	nbFramesWithoutInterferenceDropped 	0
scalar GeoRoutingNetwork2002.node13.netwl 	"Remaining Power" 	17.94480256
scalar GeoRoutingNetwork2002.node13.tranl 	nbAggrPktReceived 	0
scalar GeoRoutingNetwork2002.node13.tranl 	"nbAggrPktSentDown " 	0
scalar GeoRoutingNetwork2002.node13.appl 	"activity duration" 	-1
attr unit  s
scalar GeoRoutingNetwork2002.node13.appl 	firstPacketGeneration 	-1
attr unit  s
scalar GeoRoutingNetwork2002.node13.appl 	lastPacketReception 	-2
attr unit  s
scalar GeoRoutingNetwork2002.node13.appl 	nbPacketsSent 	0
scalar GeoRoutingNetwork2002.node13.appl 	nbPacketsReceived 	0
statistic GeoRoutingNetwork2002.node13.appl 	latency
field count 0
field mean nan
field stddev nan
field sum 0
field sqrsum 0
field min nan
field max nan
scalar GeoRoutingNetwork2002.node13.batteryStats 	nominal 	18
attr unit  mW-s
scalar GeoRoutingNetwork2002.node13.batteryStats 	total 	1.7504376162738
attr unit  mW-s
scalar GeoRoutingNetwork2002.node13.batteryStats 	lifetime 	-1
attr unit  s
scalar GeoRoutingNetwork2002.node13.batteryStats 	"Mean power consumption" 	1.8794516379609
attr unit  mW
scalar GeoRoutingNetwork2002.node14.nic.mac 	nbTxFrames 	6
scalar GeoRoutingNetwork2002.node14.nic.mac 	nbRxFrames 	0
scalar GeoRoutingNetwork2002.node14.nic.mac 	nbDroppedFrames 	0
scalar GeoRoutingNetwork2002.node14.nic.mac 	nbMissedAcks 	0
scalar GeoRoutingNetwork2002.node14.nic.mac 	nbRecvdAcks 	0
scalar GeoRoutingNetwork2002.node14.nic.mac 	nbTxAcks 	0
scalar GeoRoutingNetwork2002.node14.nic.mac 	nbDuplicates 	0
scalar GeoRoutingNetwork2002.node14.nic.mac 	meanBackoff 	0.0033454545454545
scalar GeoRoutingNetwork2002.node14.nic.mac 	nbBackoffs 	11
scalar GeoRoutingNetwork2002.node14.nic.mac 	backoffDurations 	0.0368
scalar GeoRoutingNetwork2002.node14.nic.phy 	nbFramesWithInterference 	7
scalar GeoRoutingNetwork2002.node14.nic.phy 	nbFramesWithoutInterference 	19
scalar GeoRoutingNetwork2002.node14.nic.phy 	nbFramesWithInterferencePartial 	0
scalar GeoRoutingNetwork2002.node14.nic.phy 	nbFramesWithoutInterferencePartial 	0
scalar GeoRoutingNetwork2002.node14.nic.phy 	nbFramesWithInterferenceDropped 	0
scalar GeoRoutingNetwork2002.node14.nic.phy 	nbFramesWithoutInterferenceDropped 	0
scalar GeoRoutingNetwork2002.node14.netwl 	"Remaining Power" 	17.88223616
scalar GeoRoutingNetwork2002.node14.tranl 	nbAggrPktReceived 	0
scalar GeoRoutingNetwork2002.node14.tranl 	"nbAggrPktSentDown " 	0
scalar GeoRoutingNetwork2002.node14.appl 	"activity duration" 	-1
attr unit  s
scalar GeoRoutingNetwork2002.node14.appl 	firstPacketGeneration 	-1
attr unit  s
scalar GeoRoutingNetwork2002.node14.appl 	lastPacketReception 	-2
attr unit  s
scalar GeoRoutingNetwork2002.node14.appl 	nbPacketsSent 	0
scalar GeoRoutingNetwork2002.node14.appl 	nbPacketsReceived 	0
statistic GeoRoutingNetwork2002.node14.appl 	latency
field count 0
field mean nan
field stddev nan
field sum 0
field sqrsum 0
field min nan
field max nan
scalar GeoRoutingNetwork2002.node14.batteryStats 	nominal 	18
attr unit  mW-s
scalar GeoRoutingNetwork2002.node14.batteryStats 	total 	1.7504376162738
attr unit  mW-s
scalar GeoRoutingNetwork2002.node14.batteryStats 	lifetime 	-1
attr unit  s
scalar GeoRoutingNetwork2002.node14.batteryStats 	"Mean power consumption" 	1.8794516379609
attr unit  mW
scalar GeoRoutingNetwork2002.node15.nic.mac 	nbTxFrames 	6
scalar GeoRoutingNetwork2002.node15.nic.mac 	nbRxFrames 	9
scalar GeoRoutingNetwork2002.node15.nic.mac 	nbDroppedFrames 	0
scalar GeoRoutingNetwork2002.node15.nic.mac 	nbMissedAcks 	0
scalar GeoRoutingNetwork2002.node15.nic.mac 	nbRecvdAcks 	0
scalar GeoRoutingNetwork2002.node15.nic.mac 	nbTxAcks 	0
scalar GeoRoutingNetwork2002.node15.nic.mac 	nbDuplicates 	0
scalar GeoRoutingNetwork2002.node15.nic.mac 	meanBackoff 	0.00132
scalar GeoRoutingNetwork2002.node15.nic.mac 	nbBackoffs 	8
scalar GeoRoutingNetwork2002.node15.nic.mac 	backoffDurations 	0.01056
scalar GeoRoutingNetwork2002.node15.nic.phy 	nbFramesWithInterference 	4
scalar GeoRoutingNetwork2002.node15.nic.phy 	nbFramesWithoutInterference 	15
scalar GeoRoutingNetwork2002.node15.nic.phy 	nbFramesWithInterferencePartial 	0
scalar GeoRoutingNetwork2002.node15.nic.phy 	nbFramesWithoutInterferencePartial 	0
scalar GeoRoutingNetwork2002.node15.nic.phy 	nbFramesWithInterferenceDropped 	0
scalar GeoRoutingNetwork2002.node15.nic.phy 	nbFramesWithoutInterferenceDropped 	0
scalar GeoRoutingNetwork2002.node15.netwl 	"Remaining Power" 	17.94239616
scalar GeoRoutingNetwork2002.node15.tranl 	nbAggrPktReceived 	0
scalar GeoRoutingNetwork2002.node15.tranl 	"nbAggrPktSentDown " 	0
scalar GeoRoutingNetwork2002.node15.appl 	"activity duration" 	-1
attr unit  s
scalar GeoRoutingNetwork2002.node15.appl 	firstPacketGeneration 	-1
attr unit  s
scalar GeoRoutingNetwork2002.node15.appl 	lastPacketReception 	-2
attr unit  s
scalar GeoRoutingNetwork2002.node15.appl 	nbPacketsSent 	0
scalar GeoRoutingNetwork2002.node15.appl 	nbPacketsReceived 	0
statistic GeoRoutingNetwork2002.node15.appl 	latency
field count 0
field mean nan
field stddev nan
field sum 0
field sqrsum 0
field min nan
field max nan
scalar GeoRoutingNetwork2002.node15.batteryStats 	nominal 	18
attr unit  mW-s
scalar GeoRoutingNetwork2002.node15.batteryStats 	total 	1.7504376162738
attr unit  mW-s
scalar GeoRoutingNetwork2002.node15.batteryStats 	lifetime 	-1
attr unit  s
scalar GeoRoutingNetwork2002.node15.batteryStats 	"Mean power consumption" 	1.8794516379609
attr unit  mW
scalar GeoRoutingNetwork2002.node16.nic.mac 	nbTxFrames 	6
scalar GeoRoutingNetwork2002.node16.nic.mac 	nbRxFrames 	8
scalar GeoRoutingNetwork2002.node16.nic.mac 	nbDroppedFrames 	0
scalar GeoRoutingNetwork2002.node16.nic.mac 	nbMissedAcks 	0
scalar GeoRoutingNetwork2002.node16.nic.mac 	nbRecvdAcks 	0
scalar GeoRoutingNetwork2002.node16.nic.mac 	nbTxAcks 	0
scalar GeoRoutingNetwork2002.node16.nic.mac 	nbDuplicates 	0
scalar GeoRoutingNetwork2002.node16.nic.mac 	meanBackoff 	0.0015466666666667
scalar GeoRoutingNetwork2002.node16.nic.mac 	nbBackoffs 	6
scalar GeoRoutingNetwork2002.node16.nic.mac 	backoffDurations 	0.00928
scalar GeoRoutingNetwork2002.node16.nic.phy 	nbFramesWithInterference 	0
scalar GeoRoutingNetwork2002.node16.nic.phy 	nbFramesWithoutInterference 	12
scalar GeoRoutingNetwork2002.node16.nic.phy 	nbFramesWithInterferencePartial 	0
scalar GeoRoutingNetwork2002.node16.nic.phy 	nbFramesWithoutInterferencePartial 	0
scalar GeoRoutingNetwork2002.node16.nic.phy 	nbFramesWithInterferenceDropped 	0
scalar GeoRoutingNetwork2002.node16.nic.phy 	nbFramesWithoutInterferenceDropped 	0
scalar GeoRoutingNetwork2002.node16.netwl 	"Remaining Power" 	17.95202176
scalar GeoRoutingNetwork2002.node16.tranl 	nbAggrPktReceived 	0
scalar GeoRoutingNetwork2002.node16.tranl 	"nbAggrPktSentDown " 	0
scalar GeoRoutingNetwork2002.node16.appl 	"activity duration" 	-1
attr unit  s
scalar GeoRoutingNetwork2002.node16.appl 	firstPacketGeneration 	-1
attr unit  s
scalar GeoRoutingNetwork2002.node16.appl 	lastPacketReception 	-2
attr unit  s
scalar GeoRoutingNetwork2002.node16.appl 	nbPacketsSent 	0
scalar GeoRoutingNetwork2002.node16.appl 	nbPacketsReceived 	0
statistic GeoRoutingNetwork2002.node16.appl 	latency
field count 0
field mean nan
field stddev nan
field sum 0
field sqrsum 0
field min nan
field max nan
scalar GeoRoutingNetwork2002.node16.batteryStats 	nominal 	18
attr unit  mW-s
scalar GeoRoutingNetwork2002.node16.batteryStats 	total 	1.7504376162738
attr unit  mW-s
scalar GeoRoutingNetwork2002.node16.batteryStats 	lifetime 	-1
attr unit  s
scalar GeoRoutingNetwork2002.node16.batteryStats 	"Mean power consumption" 	1.8794516379609
attr unit  mW
scalar GeoRoutingNetwork2002.node17.nic.mac 	nbTxFrames 	6
scalar GeoRoutingNetwork2002.node17.nic.mac 	nbRxFrames 	7
scalar GeoRoutingNetwork2002.node17.nic.mac 	nbDroppedFrames 	0
scalar GeoRoutingNetwork2002.node17.nic.mac 	nbMissedAcks 	0
scalar GeoRoutingNetwork2002.node17.nic.mac 	nbRecvdAcks 	0
scalar GeoRoutingNetwork2002.node17.nic.mac 	nbTxAcks 	0
scalar GeoRoutingNetwork2002.node17.nic.mac 	nbDuplicates 	0
scalar GeoRoutingNetwork2002.node17.nic.mac 	meanBackoff 	0.00212
scalar GeoRoutingNetwork2002.node17.nic.mac 	nbBackoffs 	8
scalar GeoRoutingNetwork2002.node17.nic.mac 	backoffDurations 	0.01696
scalar GeoRoutingNetwork2002.node17.nic.phy 	nbFramesWithInterference 	0
scalar GeoRoutingNetwork2002.node17.nic.phy 	nbFramesWithoutInterference 	21
scalar GeoRoutingNetwork2002.node17.nic.phy 	nbFramesWithInterferencePartial 	0
scalar GeoRoutingNetwork2002.node17.nic.phy 	nbFramesWithoutInterferencePartial 	0
scalar GeoRoutingNetwork2002.node17.nic.phy 	nbFramesWithInterferenceDropped 	1
scalar GeoRoutingNetwork2002.node17.nic.phy 	nbFramesWithoutInterferenceDropped 	0
scalar GeoRoutingNetwork2002.node17.netwl 	"Remaining Power" 	17.93036416
scalar GeoRoutingNetwork2002.node17.tranl 	nbAggrPktReceived 	0
scalar GeoRoutingNetwork2002.node17.tranl 	"nbAggrPktSentDown " 	0
scalar GeoRoutingNetwork2002.node17.appl 	"activity duration" 	-1
attr unit  s
scalar GeoRoutingNetwork2002.node17.appl 	firstPacketGeneration 	-1
attr unit  s
scalar GeoRoutingNetwork2002.node17.appl 	lastPacketReception 	-2
attr unit  s
scalar GeoRoutingNetwork2002.node17.appl 	nbPacketsSent 	0
scalar GeoRoutingNetwork2002.node17.appl 	nbPacketsReceived 	0
statistic GeoRoutingNetwork2002.node17.appl 	latency
field count 0
field mean nan
field stddev nan
field sum 0
field sqrsum 0
field min nan
field max nan
scalar GeoRoutingNetwork2002.node17.batteryStats 	nominal 	18
attr unit  mW-s
scalar GeoRoutingNetwork2002.node17.batteryStats 	total 	1.7504376162738
attr unit  mW-s
scalar GeoRoutingNetwork2002.node17.batteryStats 	lifetime 	-1
attr unit  s
scalar GeoRoutingNetwork2002.node17.batteryStats 	"Mean power consumption" 	1.8794516379609
attr unit  mW
scalar GeoRoutingNetwork2002.node18.nic.mac 	nbTxFrames 	6
scalar GeoRoutingNetwork2002.node18.nic.mac 	nbRxFrames 	8
scalar GeoRoutingNetwork2002.node18.nic.mac 	nbDroppedFrames 	0
scalar GeoRoutingNetwork2002.node18.nic.mac 	nbMissedAcks 	0
scalar GeoRoutingNetwork2002.node18.nic.mac 	nbRecvdAcks 	0
scalar GeoRoutingNetwork2002.node18.nic.mac 	nbTxAcks 	0
scalar GeoRoutingNetwork2002.node18.nic.mac 	nbDuplicates 	0
scalar GeoRoutingNetwork2002.node18.nic.mac 	meanBackoff 	0.0010666666666667
scalar GeoRoutingNetwork2002.node18.nic.mac 	nbBackoffs 	9
scalar GeoRoutingNetwork2002.node18.nic.mac 	backoffDurations 	0.0096
scalar GeoRoutingNetwork2002.node18.nic.phy 	nbFramesWithInterference 	1
scalar GeoRoutingNetwork2002.node18.nic.phy 	nbFramesWithoutInterference 	20
scalar GeoRoutingNetwork2002.node18.nic.phy 	nbFramesWithInterferencePartial 	0
scalar GeoRoutingNetwork2002.node18.nic.phy 	nbFramesWithoutInterferencePartial 	0
scalar GeoRoutingNetwork2002.node18.nic.phy 	nbFramesWithInterferenceDropped 	0
scalar GeoRoutingNetwork2002.node18.nic.phy 	nbFramesWithoutInterferenceDropped 	0
scalar GeoRoutingNetwork2002.node18.netwl 	"Remaining Power" 	17.94059136
scalar GeoRoutingNetwork2002.node18.tranl 	nbAggrPktReceived 	0
scalar GeoRoutingNetwork2002.node18.tranl 	"nbAggrPktSentDown " 	0
scalar GeoRoutingNetwork2002.node18.appl 	"activity duration" 	-1
attr unit  s
scalar GeoRoutingNetwork2002.node18.appl 	firstPacketGeneration 	-1
attr unit  s
scalar GeoRoutingNetwork2002.node18.appl 	lastPacketReception 	-2
attr unit  s
scalar GeoRoutingNetwork2002.node18.appl 	nbPacketsSent 	0
scalar GeoRoutingNetwork2002.node18.appl 	nbPacketsReceived 	0
statistic GeoRoutingNetwork2002.node18.appl 	latency
field count 0
field mean nan
field stddev nan
field sum 0
field sqrsum 0
field min nan
field max nan
scalar GeoRoutingNetwork2002.node18.batteryStats 	nominal 	18
attr unit  mW-s
scalar GeoRoutingNetwork2002.node18.batteryStats 	total 	1.7504376162738
attr unit  mW-s
scalar GeoRoutingNetwork2002.node18.batteryStats 	lifetime 	-1
attr unit  s
scalar GeoRoutingNetwork2002.node18.batteryStats 	"Mean power consumption" 	1.8794516379609
attr unit  mW
scalar GeoRoutingNetwork2002.node19.nic.mac 	nbTxFrames 	6
scalar GeoRoutingNetwork2002.node19.nic.mac 	nbRxFrames 	12
scalar GeoRoutingNetwork2002.node19.nic.mac 	nbDroppedFrames 	0
scalar GeoRoutingNetwork2002.node19.nic.mac 	nbMissedAcks 	0
scalar GeoRoutingNetwork2002.node19.nic.mac 	nbRecvdAcks 	0
scalar GeoRoutingNetwork2002.node19.nic.mac 	nbTxAcks 	0
scalar GeoRoutingNetwork2002.node19.nic.mac 	nbDuplicates 	0
scalar GeoRoutingNetwork2002.node19.nic.mac 	meanBackoff 	0.0010057142857143
scalar GeoRoutingNetwork2002.node19.nic.mac 	nbBackoffs 	7
scalar GeoRoutingNetwork2002.node19.nic.mac 	backoffDurations 	0.00704
scalar GeoRoutingNetwork2002.node19.nic.phy 	nbFramesWithInterference 	0
scalar GeoRoutingNetwork2002.node19.nic.phy 	nbFramesWithoutInterference 	18
scalar GeoRoutingNetwork2002.node19.nic.phy 	nbFramesWithInterferencePartial 	0
scalar GeoRoutingNetwork2002.node19.nic.phy 	nbFramesWithoutInterferencePartial 	0
scalar GeoRoutingNetwork2002.node19.nic.phy 	nbFramesWithInterferenceDropped 	0
scalar GeoRoutingNetwork2002.node19.nic.phy 	nbFramesWithoutInterferenceDropped 	0
scalar GeoRoutingNetwork2002.node19.netwl 	"Remaining Power" 	17.95262336
scalar GeoRoutingNetwork2002.node19.tranl 	nbAggrPktReceived 	0
scalar GeoRoutingNetwork2002.node19.tranl 	"nbAggrPktSentDown " 	0
scalar GeoRoutingNetwork2002.node19.appl 	"activity duration" 	-1
attr unit  s
scalar GeoRoutingNetwork2002.node19.appl 	firstPacketGeneration 	-1
attr unit  s
scalar GeoRoutingNetwork2002.node19.appl 	lastPacketReception 	-2
attr unit  s
scalar GeoRoutingNetwork2002.node19.appl 	nbPacketsSent 	0
scalar GeoRoutingNetwork2002.node19.appl 	nbPacketsReceived 	0
statistic GeoRoutingNetwork2002.node19.appl 	latency
field count 0
field mean nan
field stddev nan
field sum 0
field sqrsum 0
field min nan
field max nan
scalar GeoRoutingNetwork2002.node19.batteryStats 	nominal 	18
attr unit  mW-s
scalar GeoRoutingNetwork2002.node19.batteryStats 	total 	1.7504376162738
attr unit  mW-s
scalar GeoRoutingNetwork2002.node19.batteryStats 	lifetime 	-1
attr unit  s
scalar GeoRoutingNetwork2002.node19.batteryStats 	"Mean power consumption" 	1.8794516379609
attr unit  mW
scalar GeoRoutingNetwork2002.node20.nic.mac 	nbTxFrames 	6
scalar GeoRoutingNetwork2002.node20.nic.mac 	nbRxFrames 	5
scalar GeoRoutingNetwork2002.node20.nic.mac 	nbDroppedFrames 	0
scalar GeoRoutingNetwork2002.node20.nic.mac 	nbMissedAcks 	0
scalar GeoRoutingNetwork2002.node20.nic.mac 	nbRecvdAcks 	0
scalar GeoRoutingNetwork2002.node20.nic.mac 	nbTxAcks 	0
scalar GeoRoutingNetwork2002.node20.nic.mac 	nbDuplicates 	0
scalar GeoRoutingNetwork2002.node20.nic.mac 	meanBackoff 	0.0012342857142857
scalar GeoRoutingNetwork2002.node20.nic.mac 	nbBackoffs 	7
scalar GeoRoutingNetwork2002.node20.nic.mac 	backoffDurations 	0.00864
scalar GeoRoutingNetwork2002.node20.nic.phy 	nbFramesWithInterference 	4
scalar GeoRoutingNetwork2002.node20.nic.phy 	nbFramesWithoutInterference 	11
scalar GeoRoutingNetwork2002.node20.nic.phy 	nbFramesWithInterferencePartial 	0
scalar GeoRoutingNetwork2002.node20.nic.phy 	nbFramesWithoutInterferencePartial 	0
scalar GeoRoutingNetwork2002.node20.nic.phy 	nbFramesWithInterferenceDropped 	1
scalar GeoRoutingNetwork2002.node20.nic.phy 	nbFramesWithoutInterferenceDropped 	0
scalar GeoRoutingNetwork2002.node20.netwl 	"Remaining Power" 	17.94961536
scalar GeoRoutingNetwork2002.node20.tranl 	nbAggrPktReceived 	0
scalar GeoRoutingNetwork2002.node20.tranl 	"nbAggrPktSentDown " 	0
scalar GeoRoutingNetwork2002.node20.appl 	"activity duration" 	-1
attr unit  s
scalar GeoRoutingNetwork2002.node20.appl 	firstPacketGeneration 	-1
attr unit  s
scalar GeoRoutingNetwork2002.node20.appl 	lastPacketReception 	-2
attr unit  s
scalar GeoRoutingNetwork2002.node20.appl 	nbPacketsSent 	0
scalar GeoRoutingNetwork2002.node20.appl 	nbPacketsReceived 	0
statistic GeoRoutingNetwork2002.node20.appl 	latency
field count 0
field mean nan
field stddev nan
field sum 0
field sqrsum 0
field min nan
field max nan
scalar GeoRoutingNetwork2002.node20.batteryStats 	nominal 	18
attr unit  mW-s
scalar GeoRoutingNetwork2002.node20.batteryStats 	total 	1.7504376162738
attr unit  mW-s
scalar GeoRoutingNetwork2002.node20.batteryStats 	lifetime 	-1
attr unit  s
scalar GeoRoutingNetwork2002.node20.batteryStats 	"Mean power consumption" 	1.8794516379609
attr unit  mW
scalar GeoRoutingNetwork2002.node21.nic.mac 	nbTxFrames 	6
scalar GeoRoutingNetwork2002.node21.nic.mac 	nbRxFrames 	7
scalar GeoRoutingNetwork2002.node21.nic.mac 	nbDroppedFrames 	0
scalar GeoRoutingNetwork2002.node21.nic.mac 	nbMissedAcks 	0
scalar GeoRoutingNetwork2002.node21.nic.mac 	nbRecvdAcks 	0
scalar GeoRoutingNetwork2002.node21.nic.mac 	nbTxAcks 	0
scalar GeoRoutingNetwork2002.node21.nic.mac 	nbDuplicates 	0
scalar GeoRoutingNetwork2002.node21.nic.mac 	meanBackoff 	0.0016
scalar GeoRoutingNetwork2002.node21.nic.mac 	nbBackoffs 	8
scalar GeoRoutingNetwork2002.node21.nic.mac 	backoffDurations 	0.0128
scalar GeoRoutingNetwork2002.node21.nic.phy 	nbFramesWithInterference 	3
scalar GeoRoutingNetwork2002.node21.nic.phy 	nbFramesWithoutInterference 	19
scalar GeoRoutingNetwork2002.node21.nic.phy 	nbFramesWithInterferencePartial 	1
scalar GeoRoutingNetwork2002.node21.nic.phy 	nbFramesWithoutInterferencePartial 	0
scalar GeoRoutingNetwork2002.node21.nic.phy 	nbFramesWithInterferenceDropped 	0
scalar GeoRoutingNetwork2002.node21.nic.phy 	nbFramesWithoutInterferenceDropped 	0
scalar GeoRoutingNetwork2002.node21.netwl 	"Remaining Power" 	17.93818496
scalar GeoRoutingNetwork2002.node21.tranl 	nbAggrPktReceived 	0
scalar GeoRoutingNetwork2002.node21.tranl 	"nbAggrPktSentDown " 	0
scalar GeoRoutingNetwork2002.node21.appl 	"activity duration" 	-1
attr unit  s
scalar GeoRoutingNetwork2002.node21.appl 	firstPacketGeneration 	-1
attr unit  s
scalar GeoRoutingNetwork2002.node21.appl 	lastPacketReception 	-2
attr unit  s
scalar GeoRoutingNetwork2002.node21.appl 	nbPacketsSent 	0
scalar GeoRoutingNetwork2002.node21.appl 	nbPacketsReceived 	0
statistic GeoRoutingNetwork2002.node21.appl 	latency
field count 0
field mean nan
field stddev nan
field sum 0
field sqrsum 0
field min nan
field max nan
scalar GeoRoutingNetwork2002.node21.batteryStats 	nominal 	18
attr unit  mW-s
scalar GeoRoutingNetwork2002.node21.batteryStats 	total 	1.7504376162738
attr unit  mW-s
scalar GeoRoutingNetwork2002.node21.batteryStats 	lifetime 	-1
attr unit  s
scalar GeoRoutingNetwork2002.node21.batteryStats 	"Mean power consumption" 	1.8794516379609
attr unit  mW
scalar GeoRoutingNetwork2002.node22.nic.mac 	nbTxFrames 	5
scalar GeoRoutingNetwork2002.node22.nic.mac 	nbRxFrames 	0
scalar GeoRoutingNetwork2002.node22.nic.mac 	nbDroppedFrames 	1
scalar GeoRoutingNetwork2002.node22.nic.mac 	nbMissedAcks 	0
scalar GeoRoutingNetwork2002.node22.nic.mac 	nbRecvdAcks 	0
scalar GeoRoutingNetwork2002.node22.nic.mac 	nbTxAcks 	0
scalar GeoRoutingNetwork2002.node22.nic.mac 	nbDuplicates 	0
scalar GeoRoutingNetwork2002.node22.nic.mac 	meanBackoff 	0.0027323076923077
scalar GeoRoutingNetwork2002.node22.nic.mac 	nbBackoffs 	13
scalar GeoRoutingNetwork2002.node22.nic.mac 	backoffDurations 	0.03552
scalar GeoRoutingNetwork2002.node22.nic.phy 	nbFramesWithInterference 	5
scalar GeoRoutingNetwork2002.node22.nic.phy 	nbFramesWithoutInterference 	22
scalar GeoRoutingNetwork2002.node22.nic.phy 	nbFramesWithInterferencePartial 	0
scalar GeoRoutingNetwork2002.node22.nic.phy 	nbFramesWithoutInterferencePartial 	0
scalar GeoRoutingNetwork2002.node22.nic.phy 	nbFramesWithInterferenceDropped 	1
scalar GeoRoutingNetwork2002.node22.nic.phy 	nbFramesWithoutInterferenceDropped 	0
scalar GeoRoutingNetwork2002.node22.netwl 	"Remaining Power" 	17.87884224
scalar GeoRoutingNetwork2002.node22.tranl 	nbAggrPktReceived 	0
scalar GeoRoutingNetwork2002.node22.tranl 	"nbAggrPktSentDown " 	0
scalar GeoRoutingNetwork2002.node22.appl 	"activity duration" 	-1
attr unit  s
scalar GeoRoutingNetwork2002.node22.appl 	firstPacketGeneration 	-1
attr unit  s
scalar GeoRoutingNetwork2002.node22.appl 	lastPacketReception 	-2
attr unit  s
scalar GeoRoutingNetwork2002.node22.appl 	nbPacketsSent 	0
scalar GeoRoutingNetwork2002.node22.appl 	nbPacketsReceived 	0
statistic GeoRoutingNetwork2002.node22.appl 	latency
field count 0
field mean nan
field stddev nan
field sum 0
field sqrsum 0
field min nan
field max nan
scalar GeoRoutingNetwork2002.node22.batteryStats 	nominal 	18
attr unit  mW-s
scalar GeoRoutingNetwork2002.node22.batteryStats 	total 	1.7505227362738
attr unit  mW-s
scalar GeoRoutingNetwork2002.node22.batteryStats 	lifetime 	-1
attr unit  s
scalar GeoRoutingNetwork2002.node22.batteryStats 	"Mean power consumption" 	1.8795430316341
attr unit  mW
scalar GeoRoutingNetwork2002.node23.nic.mac 	nbTxFrames 	6
scalar GeoRoutingNetwork2002.node23.nic.mac 	nbRxFrames 	6
scalar GeoRoutingNetwork2002.node23.nic.mac 	nbDroppedFrames 	0
scalar GeoRoutingNetwork2002.node23.nic.mac 	nbMissedAcks 	0
scalar GeoRoutingNetwork2002.node23.nic.mac 	nbRecvdAcks 	0
scalar GeoRoutingNetwork2002.node23.nic.mac 	nbTxAcks 	0
scalar GeoRoutingNetwork2002.node23.nic.mac 	nbDuplicates 	0
scalar GeoRoutingNetwork2002.node23.nic.mac 	meanBackoff 	0.0017163636363636
scalar GeoRoutingNetwork2002.node23.nic.mac 	nbBackoffs 	11
scalar GeoRoutingNetwork2002.node23.nic.mac 	backoffDurations 	0.01888
scalar GeoRoutingNetwork2002.node23.nic.phy 	nbFramesWithInterference 	2
scalar GeoRoutingNetwork2002.node23.nic.phy 	nbFramesWithoutInterference 	28
scalar GeoRoutingNetwork2002.node23.nic.phy 	nbFramesWithInterferencePartial 	0
scalar GeoRoutingNetwork2002.node23.nic.phy 	nbFramesWithoutInterferencePartial 	0
scalar GeoRoutingNetwork2002.node23.nic.phy 	nbFramesWithInterferenceDropped 	1
scalar GeoRoutingNetwork2002.node23.nic.phy 	nbFramesWithoutInterferenceDropped 	0
scalar GeoRoutingNetwork2002.node23.netwl 	"Remaining Power" 	17.91592576
scalar GeoRoutingNetwork2002.node23.tranl 	nbAggrPktReceived 	0
scalar GeoRoutingNetwork2002.node23.tranl 	"nbAggrPktSentDown " 	0
scalar GeoRoutingNetwork2002.node23.appl 	"activity duration" 	-1
attr unit  s
scalar GeoRoutingNetwork2002.node23.appl 	firstPacketGeneration 	-1
attr unit  s
scalar GeoRoutingNetwork2002.node23.appl 	lastPacketReception 	-2
attr unit  s
scalar GeoRoutingNetwork2002.node23.appl 	nbPacketsSent 	0
scalar GeoRoutingNetwork2002.node23.appl 	nbPacketsReceived 	0
statistic GeoRoutingNetwork2002.node23.appl 	latency
field count 0
field mean nan
field stddev nan
field sum 0
field sqrsum 0
field min nan
field max nan
scalar GeoRoutingNetwork2002.node23.batteryStats 	nominal 	18
attr unit  mW-s
scalar GeoRoutingNetwork2002.node23.batteryStats 	total 	1.7504376162738
attr unit  mW-s
scalar GeoRoutingNetwork2002.node23.batteryStats 	lifetime 	-1
attr unit  s
scalar GeoRoutingNetwork2002.node23.batteryStats 	"Mean power consumption" 	1.8794516379609
attr unit  mW
scalar GeoRoutingNetwork2002.node24.nic.mac 	nbTxFrames 	6
scalar GeoRoutingNetwork2002.node24.nic.mac 	nbRxFrames 	3
scalar GeoRoutingNetwork2002.node24.nic.mac 	nbDroppedFrames 	0
scalar GeoRoutingNetwork2002.node24.nic.mac 	nbMissedAcks 	0
scalar GeoRoutingNetwork2002.node24.nic.mac 	nbRecvdAcks 	0
scalar GeoRoutingNetwork2002.node24.nic.mac 	nbTxAcks 	0
scalar GeoRoutingNetwork2002.node24.nic.mac 	nbDuplicates 	0
scalar GeoRoutingNetwork2002.node24.nic.mac 	meanBackoff 	0.001984
scalar GeoRoutingNetwork2002.node24.nic.mac 	nbBackoffs 	10
scalar GeoRoutingNetwork2002.node24.nic.mac 	backoffDurations 	0.01984
scalar GeoRoutingNetwork2002.node24.nic.phy 	nbFramesWithInterference 	4
scalar GeoRoutingNetwork2002.node24.nic.phy 	nbFramesWithoutInterference 	21
scalar GeoRoutingNetwork2002.node24.nic.phy 	nbFramesWithInterferencePartial 	0
scalar GeoRoutingNetwork2002.node24.nic.phy 	nbFramesWithoutInterferencePartial 	0
scalar GeoRoutingNetwork2002.node24.nic.phy 	nbFramesWithInterferenceDropped 	0
scalar GeoRoutingNetwork2002.node24.nic.phy 	nbFramesWithoutInterferenceDropped 	0
scalar GeoRoutingNetwork2002.node24.netwl 	"Remaining Power" 	17.91773056
scalar GeoRoutingNetwork2002.node24.tranl 	nbAggrPktReceived 	0
scalar GeoRoutingNetwork2002.node24.tranl 	"nbAggrPktSentDown " 	0
scalar GeoRoutingNetwork2002.node24.appl 	"activity duration" 	-1
attr unit  s
scalar GeoRoutingNetwork2002.node24.appl 	firstPacketGeneration 	-1
attr unit  s
scalar GeoRoutingNetwork2002.node24.appl 	lastPacketReception 	-2
attr unit  s
scalar GeoRoutingNetwork2002.node24.appl 	nbPacketsSent 	0
scalar GeoRoutingNetwork2002.node24.appl 	nbPacketsReceived 	0
statistic GeoRoutingNetwork2002.node24.appl 	latency
field count 0
field mean nan
field stddev nan
field sum 0
field sqrsum 0
field min nan
field max nan
scalar GeoRoutingNetwork2002.node24.batteryStats 	nominal 	18
attr unit  mW-s
scalar GeoRoutingNetwork2002.node24.batteryStats 	total 	1.7504376162738
attr unit  mW-s
scalar GeoRoutingNetwork2002.node24.batteryStats 	lifetime 	-1
attr unit  s
scalar GeoRoutingNetwork2002.node24.batteryStats 	"Mean power consumption" 	1.8794516379609
attr unit  mW
scalar GeoRoutingNetwork2002.node25.nic.mac 	nbTxFrames 	6
scalar GeoRoutingNetwork2002.node25.nic.mac 	nbRxFrames 	4
scalar GeoRoutingNetwork2002.node25.nic.mac 	nbDroppedFrames 	0
scalar GeoRoutingNetwork2002.node25.nic.mac 	nbMissedAcks 	0
scalar GeoRoutingNetwork2002.node25.nic.mac 	nbRecvdAcks 	0
scalar GeoRoutingNetwork2002.node25.nic.mac 	nbTxAcks 	0
scalar GeoRoutingNetwork2002.node25.nic.mac 	nbDuplicates 	0
scalar GeoRoutingNetwork2002.node25.nic.mac 	meanBackoff 	0.00212
scalar GeoRoutingNetwork2002.node25.nic.mac 	nbBackoffs 	8
scalar GeoRoutingNetwork2002.node25.nic.mac 	backoffDurations 	0.01696
scalar GeoRoutingNetwork2002.node25.nic.phy 	nbFramesWithInterference 	4
scalar GeoRoutingNetwork2002.node25.nic.phy 	nbFramesWithoutInterference 	20
scalar GeoRoutingNetwork2002.node25.nic.phy 	nbFramesWithInterferencePartial 	0
scalar GeoRoutingNetwork2002.node25.nic.phy 	nbFramesWithoutInterferencePartial 	0
scalar GeoRoutingNetwork2002.node25.nic.phy 	nbFramesWithInterferenceDropped 	1
scalar GeoRoutingNetwork2002.node25.nic.phy 	nbFramesWithoutInterferenceDropped 	0
scalar GeoRoutingNetwork2002.node25.netwl 	"Remaining Power" 	17.93036416
scalar GeoRoutingNetwork2002.node25.tranl 	nbAggrPktReceived 	0
scalar GeoRoutingNetwork2002.node25.tranl 	"nbAggrPktSentDown " 	0
scalar GeoRoutingNetwork2002.node25.appl 	"activity duration" 	-1
attr unit  s
scalar GeoRoutingNetwork2002.node25.appl 	firstPacketGeneration 	-1
attr unit  s
scalar GeoRoutingNetwork2002.node25.appl 	lastPacketReception 	-2
attr unit  s
scalar GeoRoutingNetwork2002.node25.appl 	nbPacketsSent 	0
scalar GeoRoutingNetwork2002.node25.appl 	nbPacketsReceived 	0
statistic GeoRoutingNetwork2002.node25.appl 	latency
field count 0
field mean nan
field stddev nan
field sum 0
field sqrsum 0
field min nan
field max nan
scalar GeoRoutingNetwork2002.node25.batteryStats 	nominal 	18
attr unit  mW-s
scalar GeoRoutingNetwork2002.node25.batteryStats 	total 	1.7504376162738
attr unit  mW-s
scalar GeoRoutingNetwork2002.node25.batteryStats 	lifetime 	-1
attr unit  s
scalar GeoRoutingNetwork2002.node25.batteryStats 	"Mean power consumption" 	1.8794516379609
attr unit  mW
scalar GeoRoutingNetwork2002.node26.nic.mac 	nbTxFrames 	6
scalar GeoRoutingNetwork2002.node26.nic.mac 	nbRxFrames 	2
scalar GeoRoutingNetwork2002.node26.nic.mac 	nbDroppedFrames 	0
scalar GeoRoutingNetwork2002.node26.nic.mac 	nbMissedAcks 	0
scalar GeoRoutingNetwork2002.node26.nic.mac 	nbRecvdAcks 	0
scalar GeoRoutingNetwork2002.node26.nic.mac 	nbTxAcks 	0
scalar GeoRoutingNetwork2002.node26.nic.mac 	nbDuplicates 	0
scalar GeoRoutingNetwork2002.node26.nic.mac 	meanBackoff 	0.0020363636363636
scalar GeoRoutingNetwork2002.node26.nic.mac 	nbBackoffs 	11
scalar GeoRoutingNetwork2002.node26.nic.mac 	backoffDurations 	0.0224
scalar GeoRoutingNetwork2002.node26.nic.phy 	nbFramesWithInterference 	0
scalar GeoRoutingNetwork2002.node26.nic.phy 	nbFramesWithoutInterference 	20
scalar GeoRoutingNetwork2002.node26.nic.phy 	nbFramesWithInterferencePartial 	1
scalar GeoRoutingNetwork2002.node26.nic.phy 	nbFramesWithoutInterferencePartial 	0
scalar GeoRoutingNetwork2002.node26.nic.phy 	nbFramesWithInterferenceDropped 	2
scalar GeoRoutingNetwork2002.node26.nic.phy 	nbFramesWithoutInterferenceDropped 	0
scalar GeoRoutingNetwork2002.node26.netwl 	"Remaining Power" 	17.90930816
scalar GeoRoutingNetwork2002.node26.tranl 	nbAggrPktReceived 	0
scalar GeoRoutingNetwork2002.node26.tranl 	"nbAggrPktSentDown " 	0
scalar GeoRoutingNetwork2002.node26.appl 	"activity duration" 	-1
attr unit  s
scalar GeoRoutingNetwork2002.node26.appl 	firstPacketGeneration 	-1
attr unit  s
scalar GeoRoutingNetwork2002.node26.appl 	lastPacketReception 	-2
attr unit  s
scalar GeoRoutingNetwork2002.node26.appl 	nbPacketsSent 	0
scalar GeoRoutingNetwork2002.node26.appl 	nbPacketsReceived 	0
statistic GeoRoutingNetwork2002.node26.appl 	latency
field count 0
field mean nan
field stddev nan
field sum 0
field sqrsum 0
field min nan
field max nan
scalar GeoRoutingNetwork2002.node26.batteryStats 	nominal 	18
attr unit  mW-s
scalar GeoRoutingNetwork2002.node26.batteryStats 	total 	1.7504376162738
attr unit  mW-s
scalar GeoRoutingNetwork2002.node26.batteryStats 	lifetime 	-1
attr unit  s
scalar GeoRoutingNetwork2002.node26.batteryStats 	"Mean power consumption" 	1.8794516379609
attr unit  mW
scalar GeoRoutingNetwork2002.node27.nic.mac 	nbTxFrames 	6
scalar GeoRoutingNetwork2002.node27.nic.mac 	nbRxFrames 	6
scalar GeoRoutingNetwork2002.node27.nic.mac 	nbDroppedFrames 	0
scalar GeoRoutingNetwork2002.node27.nic.mac 	nbMissedAcks 	0
scalar GeoRoutingNetwork2002.node27.nic.mac 	nbRecvdAcks 	0
scalar GeoRoutingNetwork2002.node27.nic.mac 	nbTxAcks 	0
scalar GeoRoutingNetwork2002.node27.nic.mac 	nbDuplicates 	0
scalar GeoRoutingNetwork2002.node27.nic.mac 	meanBackoff 	0.001536
scalar GeoRoutingNetwork2002.node27.nic.mac 	nbBackoffs 	10
scalar GeoRoutingNetwork2002.node27.nic.mac 	backoffDurations 	0.01536
scalar GeoRoutingNetwork2002.node27.nic.phy 	nbFramesWithInterference 	3
scalar GeoRoutingNetwork2002.node27.nic.phy 	nbFramesWithoutInterference 	18
scalar GeoRoutingNetwork2002.node27.nic.phy 	nbFramesWithInterferencePartial 	0
scalar GeoRoutingNetwork2002.node27.nic.phy 	nbFramesWithoutInterferencePartial 	0
scalar GeoRoutingNetwork2002.node27.nic.phy 	nbFramesWithInterferenceDropped 	3
scalar GeoRoutingNetwork2002.node27.nic.phy 	nbFramesWithoutInterferenceDropped 	0
scalar GeoRoutingNetwork2002.node27.netwl 	"Remaining Power" 	17.92615296
scalar GeoRoutingNetwork2002.node27.tranl 	nbAggrPktReceived 	0
scalar GeoRoutingNetwork2002.node27.tranl 	"nbAggrPktSentDown " 	0
scalar GeoRoutingNetwork2002.node27.appl 	"activity duration" 	-1
attr unit  s
scalar GeoRoutingNetwork2002.node27.appl 	firstPacketGeneration 	-1
attr unit  s
scalar GeoRoutingNetwork2002.node27.appl 	lastPacketReception 	-2
attr unit  s
scalar GeoRoutingNetwork2002.node27.appl 	nbPacketsSent 	0
scalar GeoRoutingNetwork2002.node27.appl 	nbPacketsReceived 	0
statistic GeoRoutingNetwork2002.node27.appl 	latency
field count 0
field mean nan
field stddev nan
field sum 0
field sqrsum 0
field min nan
field max nan
scalar GeoRoutingNetwork2002.node27.batteryStats 	nominal 	18
attr unit  mW-s
scalar GeoRoutingNetwork2002.node27.batteryStats 	total 	1.7504376162738
attr unit  mW-s
scalar GeoRoutingNetwork2002.node27.batteryStats 	lifetime 	-1
attr unit  s
scalar GeoRoutingNetwork2002.node27.batteryStats 	"Mean power consumption" 	1.8794516379609
attr unit  mW
scalar GeoRoutingNetwork2002.node28.nic.mac 	nbTxFrames 	6
scalar GeoRoutingNetwork2002.node28.nic.mac 	nbRxFrames 	3
scalar GeoRoutingNetwork2002.node28.nic.mac 	nbDroppedFrames 	0
scalar GeoRoutingNetwork2002.node28.nic.mac 	nbMissedAcks 	0
scalar GeoRoutingNetwork2002.node28.nic.mac 	nbRecvdAcks 	0
scalar GeoRoutingNetwork2002.node28.nic.mac 	nbTxAcks 	0
scalar GeoRoutingNetwork2002.node28.nic.mac 	nbDuplicates 	0
scalar GeoRoutingNetwork2002.node28.nic.mac 	meanBackoff 	0.0022981818181818
scalar GeoRoutingNetwork2002.node28.nic.mac 	nbBackoffs 	11
scalar GeoRoutingNetwork2002.node28.nic.mac 	backoffDurations 	0.02528
scalar GeoRoutingNetwork2002.node28.nic.phy 	nbFramesWithInterference 	5
scalar GeoRoutingNetwork2002.node28.nic.phy 	nbFramesWithoutInterference 	17
scalar GeoRoutingNetwork2002.node28.nic.phy 	nbFramesWithInterferencePartial 	0
scalar GeoRoutingNetwork2002.node28.nic.phy 	nbFramesWithoutInterferencePartial 	0
scalar GeoRoutingNetwork2002.node28.nic.phy 	nbFramesWithInterferenceDropped 	0
scalar GeoRoutingNetwork2002.node28.nic.phy 	nbFramesWithoutInterferenceDropped 	0
scalar GeoRoutingNetwork2002.node28.netwl 	"Remaining Power" 	17.90389376
scalar GeoRoutingNetwork2002.node28.tranl 	nbAggrPktReceived 	0
scalar GeoRoutingNetwork2002.node28.tranl 	"nbAggrPktSentDown " 	0
scalar GeoRoutingNetwork2002.node28.appl 	"activity duration" 	-1
attr unit  s
scalar GeoRoutingNetwork2002.node28.appl 	firstPacketGeneration 	-1
attr unit  s
scalar GeoRoutingNetwork2002.node28.appl 	lastPacketReception 	-2
attr unit  s
scalar GeoRoutingNetwork2002.node28.appl 	nbPacketsSent 	0
scalar GeoRoutingNetwork2002.node28.appl 	nbPacketsReceived 	0
statistic GeoRoutingNetwork2002.node28.appl 	latency
field count 0
field mean nan
field stddev nan
field sum 0
field sqrsum 0
field min nan
field max nan
scalar GeoRoutingNetwork2002.node28.batteryStats 	nominal 	18
attr unit  mW-s
scalar GeoRoutingNetwork2002.node28.batteryStats 	total 	1.7504376162738
attr unit  mW-s
scalar GeoRoutingNetwork2002.node28.batteryStats 	lifetime 	-1
attr unit  s
scalar GeoRoutingNetwork2002.node28.batteryStats 	"Mean power consumption" 	1.8794516379609
attr unit  mW
scalar GeoRoutingNetwork2002.node29.nic.mac 	nbTxFrames 	6
scalar GeoRoutingNetwork2002.node29.nic.mac 	nbRxFrames 	7
scalar GeoRoutingNetwork2002.node29.nic.mac 	nbDroppedFrames 	0
scalar GeoRoutingNetwork2002.node29.nic.mac 	nbMissedAcks 	0
scalar GeoRoutingNetwork2002.node29.nic.mac 	nbRecvdAcks 	0
scalar GeoRoutingNetwork2002.node29.nic.mac 	nbTxAcks 	0
scalar GeoRoutingNetwork2002.node29.nic.mac 	nbDuplicates 	0
scalar GeoRoutingNetwork2002.node29.nic.mac 	meanBackoff 	0.0024177777777778
scalar GeoRoutingNetwork2002.node29.nic.mac 	nbBackoffs 	9
scalar GeoRoutingNetwork2002.node29.nic.mac 	backoffDurations 	0.02176
scalar GeoRoutingNetwork2002.node29.nic.phy 	nbFramesWithInterference 	4
scalar GeoRoutingNetwork2002.node29.nic.phy 	nbFramesWithoutInterference 	18
scalar GeoRoutingNetwork2002.node29.nic.phy 	nbFramesWithInterferencePartial 	0
scalar GeoRoutingNetwork2002.node29.nic.phy 	nbFramesWithoutInterferencePartial 	0
scalar GeoRoutingNetwork2002.node29.nic.phy 	nbFramesWithInterferenceDropped 	1
scalar GeoRoutingNetwork2002.node29.nic.phy 	nbFramesWithoutInterferenceDropped 	0
scalar GeoRoutingNetwork2002.node29.netwl 	"Remaining Power" 	17.91773056
scalar GeoRoutingNetwork2002.node29.tranl 	nbAggrPktReceived 	0
scalar GeoRoutingNetwork2002.node29.tranl 	"nbAggrPktSentDown " 	0
scalar GeoRoutingNetwork2002.node29.appl 	"activity duration" 	-1
attr unit  s
scalar GeoRoutingNetwork2002.node29.appl 	firstPacketGeneration 	-1
attr unit  s
scalar GeoRoutingNetwork2002.node29.appl 	lastPacketReception 	-2
attr unit  s
scalar GeoRoutingNetwork2002.node29.appl 	nbPacketsSent 	0
scalar GeoRoutingNetwork2002.node29.appl 	nbPacketsReceived 	0
statistic GeoRoutingNetwork2002.node29.appl 	latency
field count 0
field mean nan
field stddev nan
field sum 0
field sqrsum 0
field min nan
field max nan
scalar GeoRoutingNetwork2002.node29.batteryStats 	nominal 	18
attr unit  mW-s
scalar GeoRoutingNetwork2002.node29.batteryStats 	total 	1.7504376162738
attr unit  mW-s
scalar GeoRoutingNetwork2002.node29.batteryStats 	lifetime 	-1
attr unit  s
scalar GeoRoutingNetwork2002.node29.batteryStats 	"Mean power consumption" 	1.8794516379609
attr unit  mW
scalar GeoRoutingNetwork2002.node30.nic.mac 	nbTxFrames 	6
scalar GeoRoutingNetwork2002.node30.nic.mac 	nbRxFrames 	0
scalar GeoRoutingNetwork2002.node30.nic.mac 	nbDroppedFrames 	0
scalar GeoRoutingNetwork2002.node30.nic.mac 	nbMissedAcks 	0
scalar GeoRoutingNetwork2002.node30.nic.mac 	nbRecvdAcks 	0
scalar GeoRoutingNetwork2002.node30.nic.mac 	nbTxAcks 	0
scalar GeoRoutingNetwork2002.node30.nic.mac 	nbDuplicates 	0
scalar GeoRoutingNetwork2002.node30.nic.mac 	meanBackoff 	0.0022133333333333
scalar GeoRoutingNetwork2002.node30.nic.mac 	nbBackoffs 	12
scalar GeoRoutingNetwork2002.node30.nic.mac 	backoffDurations 	0.02656
scalar GeoRoutingNetwork2002.node30.nic.phy 	nbFramesWithInterference 	5
scalar GeoRoutingNetwork2002.node30.nic.phy 	nbFramesWithoutInterference 	13
scalar GeoRoutingNetwork2002.node30.nic.phy 	nbFramesWithInterferencePartial 	0
scalar GeoRoutingNetwork2002.node30.nic.phy 	nbFramesWithoutInterferencePartial 	0
scalar GeoRoutingNetwork2002.node30.nic.phy 	nbFramesWithInterferenceDropped 	3
scalar GeoRoutingNetwork2002.node30.nic.phy 	nbFramesWithoutInterferenceDropped 	3
scalar GeoRoutingNetwork2002.node30.netwl 	"Remaining Power" 	17.89787776
scalar GeoRoutingNetwork2002.node30.tranl 	nbAggrPktReceived 	0
scalar GeoRoutingNetwork2002.node30.tranl 	"nbAggrPktSentDown " 	0
scalar GeoRoutingNetwork2002.node30.appl 	"activity duration" 	-1
attr unit  s
scalar GeoRoutingNetwork2002.node30.appl 	firstPacketGeneration 	-1
attr unit  s
scalar GeoRoutingNetwork2002.node30.appl 	lastPacketReception 	-2
attr unit  s
scalar GeoRoutingNetwork2002.node30.appl 	nbPacketsSent 	0
scalar GeoRoutingNetwork2002.node30.appl 	nbPacketsReceived 	0
statistic GeoRoutingNetwork2002.node30.appl 	latency
field count 0
field mean nan
field stddev nan
field sum 0
field sqrsum 0
field min nan
field max nan
scalar GeoRoutingNetwork2002.node30.batteryStats 	nominal 	18
attr unit  mW-s
scalar GeoRoutingNetwork2002.node30.batteryStats 	total 	1.7504376162738
attr unit  mW-s
scalar GeoRoutingNetwork2002.node30.batteryStats 	lifetime 	-1
attr unit  s
scalar GeoRoutingNetwork2002.node30.batteryStats 	"Mean power consumption" 	1.8794516379609
attr unit  mW
scalar GeoRoutingNetwork2002.node31.nic.mac 	nbTxFrames 	6
scalar GeoRoutingNetwork2002.node31.nic.mac 	nbRxFrames 	4
scalar GeoRoutingNetwork2002.node31.nic.mac 	nbDroppedFrames 	0
scalar GeoRoutingNetwork2002.node31.nic.mac 	nbMissedAcks 	0
scalar GeoRoutingNetwork2002.node31.nic.mac 	nbRecvdAcks 	0
scalar GeoRoutingNetwork2002.node31.nic.mac 	nbTxAcks 	0
scalar GeoRoutingNetwork2002.node31.nic.mac 	nbDuplicates 	0
scalar GeoRoutingNetwork2002.node31.nic.mac 	meanBackoff 	0.002208
scalar GeoRoutingNetwork2002.node31.nic.mac 	nbBackoffs 	10
scalar GeoRoutingNetwork2002.node31.nic.mac 	backoffDurations 	0.02208
scalar GeoRoutingNetwork2002.node31.nic.phy 	nbFramesWithInterference 	8
scalar GeoRoutingNetwork2002.node31.nic.phy 	nbFramesWithoutInterference 	17
scalar GeoRoutingNetwork2002.node31.nic.phy 	nbFramesWithInterferencePartial 	0
scalar GeoRoutingNetwork2002.node31.nic.phy 	nbFramesWithoutInterferencePartial 	0
scalar GeoRoutingNetwork2002.node31.nic.phy 	nbFramesWithInterferenceDropped 	1
scalar GeoRoutingNetwork2002.node31.nic.phy 	nbFramesWithoutInterferenceDropped 	0
scalar GeoRoutingNetwork2002.node31.netwl 	"Remaining Power" 	17.91351936
scalar GeoRoutingNetwork2002.node31.tranl 	nbAggrPktReceived 	0
scalar GeoRoutingNetwork2002.node31.tranl 	"nbAggrPktSentDown " 	0
scalar GeoRoutingNetwork2002.node31.appl 	"activity duration" 	-1
attr unit  s
scalar GeoRoutingNetwork2002.node31.appl 	firstPacketGeneration 	-1
attr unit  s
scalar GeoRoutingNetwork2002.node31.appl 	lastPacketReception 	-2
attr unit  s
scalar GeoRoutingNetwork2002.node31.appl 	nbPacketsSent 	0
scalar GeoRoutingNetwork2002.node31.appl 	nbPacketsReceived 	0
statistic GeoRoutingNetwork2002.node31.appl 	latency
field count 0
field mean nan
field stddev nan
field sum 0
field sqrsum 0
field min nan
field max nan
scalar GeoRoutingNetwork2002.node31.batteryStats 	nominal 	18
attr unit  mW-s
scalar GeoRoutingNetwork2002.node31.batteryStats 	total 	1.7504376162738
attr unit  mW-s
scalar GeoRoutingNetwork2002.node31.batteryStats 	lifetime 	-1
attr unit  s
[...]
scalar GeoRoutingNetwork2002.node191.batteryStats 	lifetime 	-1
attr unit  s
scalar GeoRoutingNetwork2002.node191.batteryStats 	"Mean power consumption" 	1.8794516379609
attr unit  mW
scalar GeoRoutingNetwork2002.node192.nic.mac 	nbTxFrames 	6
scalar GeoRoutingNetwork2002.node192.nic.mac 	nbRxFrames 	10
scalar GeoRoutingNetwork2002.node192.nic.mac 	nbDroppedFrames 	0
scalar GeoRoutingNetwork2002.node192.nic.mac 	nbMissedAcks 	0
scalar GeoRoutingNetwork2002.node192.nic.mac 	nbRecvdAcks 	0
scalar GeoRoutingNetwork2002.node192.nic.mac 	nbTxAcks 	0
scalar GeoRoutingNetwork2002.node192.nic.mac 	nbDuplicates 	0
scalar GeoRoutingNetwork2002.node192.nic.mac 	meanBackoff 	0.0010057142857143
scalar GeoRoutingNetwork2002.node192.nic.mac 	nbBackoffs 	7
scalar GeoRoutingNetwork2002.node192.nic.mac 	backoffDurations 	0.00704
scalar GeoRoutingNetwork2002.node192.nic.phy 	nbFramesWithInterference 	2
scalar GeoRoutingNetwork2002.node192.nic.phy 	nbFramesWithoutInterference 	16
scalar GeoRoutingNetwork2002.node192.nic.phy 	nbFramesWithInterferencePartial 	0
scalar GeoRoutingNetwork2002.node192.nic.phy 	nbFramesWithoutInterferencePartial 	0
scalar GeoRoutingNetwork2002.node192.nic.phy 	nbFramesWithInterferenceDropped 	1
scalar GeoRoutingNetwork2002.node192.nic.phy 	nbFramesWithoutInterferenceDropped 	0
scalar GeoRoutingNetwork2002.node192.netwl 	"Remaining Power" 	17.95262336
scalar GeoRoutingNetwork2002.node192.tranl 	nbAggrPktReceived 	0
scalar GeoRoutingNetwork2002.node192.tranl 	"nbAggrPktSentDown " 	0
scalar GeoRoutingNetwork2002.node192.appl 	"activity duration" 	-1
attr unit  s
scalar GeoRoutingNetwork2002.node192.appl 	firstPacketGeneration 	-1
attr unit  s
scalar GeoRoutingNetwork2002.node192.appl 	lastPacketReception 	-2
attr unit  s
scalar GeoRoutingNetwork2002.node192.appl 	nbPacketsSent 	0
scalar GeoRoutingNetwork2002.node192.appl 	nbPacketsReceived 	0
statistic GeoRoutingNetwork2002.node192.appl 	latency
field count 0
field mean nan
field stddev nan
field sum 0
field sqrsum 0
field min nan
field max nan
scalar GeoRoutingNetwork2002.node192.batteryStats 	nominal 	18
attr unit  mW-s
scalar GeoRoutingNetwork2002.node192.batteryStats 	total 	1.7504376162738
attr unit  mW-s
scalar GeoRoutingNetwork2002.node192.batteryStats 	lifetime 	-1
attr unit  s
scalar GeoRoutingNetwork2002.node192.batteryStats 	"Mean power consumption" 	1.8794516379609
attr unit  mW
scalar GeoRoutingNetwork2002.node193.nic.mac 	nbTxFrames 	6
scalar GeoRoutingNetwork2002.node193.nic.mac 	nbRxFrames 	3
scalar GeoRoutingNetwork2002.node193.nic.mac 	nbDroppedFrames 	0
scalar GeoRoutingNetwork2002.node193.nic.mac 	nbMissedAcks 	0
scalar GeoRoutingNetwork2002.node193.nic.mac 	nbRecvdAcks 	0
scalar GeoRoutingNetwork2002.node193.nic.mac 	nbTxAcks 	0
scalar GeoRoutingNetwork2002.node193.nic.mac 	nbDuplicates 	0
scalar GeoRoutingNetwork2002.node193.nic.mac 	meanBackoff 	0.00128
scalar GeoRoutingNetwork2002.node193.nic.mac 	nbBackoffs 	7
scalar GeoRoutingNetwork2002.node193.nic.mac 	backoffDurations 	0.00896
scalar GeoRoutingNetwork2002.node193.nic.phy 	nbFramesWithInterference 	2
scalar GeoRoutingNetwork2002.node193.nic.phy 	nbFramesWithoutInterference 	10
scalar GeoRoutingNetwork2002.node193.nic.phy 	nbFramesWithInterferencePartial 	1
scalar GeoRoutingNetwork2002.node193.nic.phy 	nbFramesWithoutInterferencePartial 	0
scalar GeoRoutingNetwork2002.node193.nic.phy 	nbFramesWithInterferenceDropped 	0
scalar GeoRoutingNetwork2002.node193.nic.phy 	nbFramesWithoutInterferenceDropped 	0
scalar GeoRoutingNetwork2002.node193.netwl 	"Remaining Power" 	17.94901376
scalar GeoRoutingNetwork2002.node193.tranl 	nbAggrPktReceived 	0
scalar GeoRoutingNetwork2002.node193.tranl 	"nbAggrPktSentDown " 	0
scalar GeoRoutingNetwork2002.node193.appl 	"activity duration" 	-1
attr unit  s
scalar GeoRoutingNetwork2002.node193.appl 	firstPacketGeneration 	-1
attr unit  s
scalar GeoRoutingNetwork2002.node193.appl 	lastPacketReception 	-2
attr unit  s
scalar GeoRoutingNetwork2002.node193.appl 	nbPacketsSent 	0
scalar GeoRoutingNetwork2002.node193.appl 	nbPacketsReceived 	0
statistic GeoRoutingNetwork2002.node193.appl 	latency
field count 0
field mean nan
field stddev nan
field sum 0
field sqrsum 0
field min nan
field max nan
scalar GeoRoutingNetwork2002.node193.batteryStats 	nominal 	18
attr unit  mW-s
scalar GeoRoutingNetwork2002.node193.batteryStats 	total 	1.7504376162738
attr unit  mW-s
scalar GeoRoutingNetwork2002.node193.batteryStats 	lifetime 	-1
attr unit  s
scalar GeoRoutingNetwork2002.node193.batteryStats 	"Mean power consumption" 	1.8794516379609
attr unit  mW
scalar GeoRoutingNetwork2002.node194.nic.mac 	nbTxFrames 	5
scalar GeoRoutingNetwork2002.node194.nic.mac 	nbRxFrames 	2
scalar GeoRoutingNetwork2002.node194.nic.mac 	nbDroppedFrames 	1
scalar GeoRoutingNetwork2002.node194.nic.mac 	nbMissedAcks 	0
scalar GeoRoutingNetwork2002.node194.nic.mac 	nbRecvdAcks 	0
scalar GeoRoutingNetwork2002.node194.nic.mac 	nbTxAcks 	0
scalar GeoRoutingNetwork2002.node194.nic.mac 	nbDuplicates 	0
scalar GeoRoutingNetwork2002.node194.nic.mac 	meanBackoff 	0.0020072727272727
scalar GeoRoutingNetwork2002.node194.nic.mac 	nbBackoffs 	11
scalar GeoRoutingNetwork2002.node194.nic.mac 	backoffDurations 	0.02208
scalar GeoRoutingNetwork2002.node194.nic.phy 	nbFramesWithInterference 	2
scalar GeoRoutingNetwork2002.node194.nic.phy 	nbFramesWithoutInterference 	20
scalar GeoRoutingNetwork2002.node194.nic.phy 	nbFramesWithInterferencePartial 	0
scalar GeoRoutingNetwork2002.node194.nic.phy 	nbFramesWithoutInterferencePartial 	0
scalar GeoRoutingNetwork2002.node194.nic.phy 	nbFramesWithInterferenceDropped 	0
scalar GeoRoutingNetwork2002.node194.nic.phy 	nbFramesWithoutInterferenceDropped 	0
scalar GeoRoutingNetwork2002.node194.netwl 	"Remaining Power" 	17.91132864
scalar GeoRoutingNetwork2002.node194.tranl 	nbAggrPktReceived 	0
scalar GeoRoutingNetwork2002.node194.tranl 	"nbAggrPktSentDown " 	0
scalar GeoRoutingNetwork2002.node194.appl 	"activity duration" 	-1
attr unit  s
scalar GeoRoutingNetwork2002.node194.appl 	firstPacketGeneration 	-1
attr unit  s
scalar GeoRoutingNetwork2002.node194.appl 	lastPacketReception 	-2
attr unit  s
scalar GeoRoutingNetwork2002.node194.appl 	nbPacketsSent 	0
scalar GeoRoutingNetwork2002.node194.appl 	nbPacketsReceived 	0
statistic GeoRoutingNetwork2002.node194.appl 	latency
field count 0
field mean nan
field stddev nan
field sum 0
field sqrsum 0
field min nan
field max nan
scalar GeoRoutingNetwork2002.node194.batteryStats 	nominal 	18
attr unit  mW-s
scalar GeoRoutingNetwork2002.node194.batteryStats 	total 	1.7505227362738
attr unit  mW-s
scalar GeoRoutingNetwork2002.node194.batteryStats 	lifetime 	-1
attr unit  s
scalar GeoRoutingNetwork2002.node194.batteryStats 	"Mean power consumption" 	1.8795430316341
attr unit  mW
scalar GeoRoutingNetwork2002.node195.nic.mac 	nbTxFrames 	6
scalar GeoRoutingNetwork2002.node195.nic.mac 	nbRxFrames 	8
scalar GeoRoutingNetwork2002.node195.nic.mac 	nbDroppedFrames 	0
scalar GeoRoutingNetwork2002.node195.nic.mac 	nbMissedAcks 	0
scalar GeoRoutingNetwork2002.node195.nic.mac 	nbRecvdAcks 	0
scalar GeoRoutingNetwork2002.node195.nic.mac 	nbTxAcks 	0
scalar GeoRoutingNetwork2002.node195.nic.mac 	nbDuplicates 	0
scalar GeoRoutingNetwork2002.node195.nic.mac 	meanBackoff 	0.001664
scalar GeoRoutingNetwork2002.node195.nic.mac 	nbBackoffs 	10
scalar GeoRoutingNetwork2002.node195.nic.mac 	backoffDurations 	0.01664
scalar GeoRoutingNetwork2002.node195.nic.phy 	nbFramesWithInterference 	6
scalar GeoRoutingNetwork2002.node195.nic.phy 	nbFramesWithoutInterference 	17
scalar GeoRoutingNetwork2002.node195.nic.phy 	nbFramesWithInterferencePartial 	0
scalar GeoRoutingNetwork2002.node195.nic.phy 	nbFramesWithoutInterferencePartial 	0
scalar GeoRoutingNetwork2002.node195.nic.phy 	nbFramesWithInterferenceDropped 	2
scalar GeoRoutingNetwork2002.node195.nic.phy 	nbFramesWithoutInterferenceDropped 	0
scalar GeoRoutingNetwork2002.node195.netwl 	"Remaining Power" 	17.92374656
scalar GeoRoutingNetwork2002.node195.tranl 	nbAggrPktReceived 	0
scalar GeoRoutingNetwork2002.node195.tranl 	"nbAggrPktSentDown " 	0
scalar GeoRoutingNetwork2002.node195.appl 	"activity duration" 	-1
attr unit  s
scalar GeoRoutingNetwork2002.node195.appl 	firstPacketGeneration 	-1
attr unit  s
scalar GeoRoutingNetwork2002.node195.appl 	lastPacketReception 	-2
attr unit  s
scalar GeoRoutingNetwork2002.node195.appl 	nbPacketsSent 	0
scalar GeoRoutingNetwork2002.node195.appl 	nbPacketsReceived 	0
statistic GeoRoutingNetwork2002.node195.appl 	latency
field count 0
field mean nan
field stddev nan
field sum 0
field sqrsum 0
field min nan
field max nan
scalar GeoRoutingNetwork2002.node195.batteryStats 	nominal 	18
attr unit  mW-s
scalar GeoRoutingNetwork2002.node195.batteryStats 	total 	1.7504376162738
attr unit  mW-s
scalar GeoRoutingNetwork2002.node195.batteryStats 	lifetime 	-1
attr unit  s
scalar GeoRoutingNetwork2002.node195.batteryStats 	"Mean power consumption" 	1.8794516379609
attr unit  mW
scalar GeoRoutingNetwork2002.node196.nic.mac 	nbTxFrames 	6
scalar GeoRoutingNetwork2002.node196.nic.mac 	nbRxFrames 	8
scalar GeoRoutingNetwork2002.node196.nic.mac 	nbDroppedFrames 	0
scalar GeoRoutingNetwork2002.node196.nic.mac 	nbMissedAcks 	0
scalar GeoRoutingNetwork2002.node196.nic.mac 	nbRecvdAcks 	0
scalar GeoRoutingNetwork2002.node196.nic.mac 	nbTxAcks 	0
scalar GeoRoutingNetwork2002.node196.nic.mac 	nbDuplicates 	0
scalar GeoRoutingNetwork2002.node196.nic.mac 	meanBackoff 	0.0011927272727273
scalar GeoRoutingNetwork2002.node196.nic.mac 	nbBackoffs 	11
scalar GeoRoutingNetwork2002.node196.nic.mac 	backoffDurations 	0.01312
scalar GeoRoutingNetwork2002.node196.nic.phy 	nbFramesWithInterference 	3
scalar GeoRoutingNetwork2002.node196.nic.phy 	nbFramesWithoutInterference 	20
scalar GeoRoutingNetwork2002.node196.nic.phy 	nbFramesWithInterferencePartial 	0
scalar GeoRoutingNetwork2002.node196.nic.phy 	nbFramesWithoutInterferencePartial 	0
scalar GeoRoutingNetwork2002.node196.nic.phy 	nbFramesWithInterferenceDropped 	1
scalar GeoRoutingNetwork2002.node196.nic.phy 	nbFramesWithoutInterferenceDropped 	0
scalar GeoRoutingNetwork2002.node196.netwl 	"Remaining Power" 	17.92675456
scalar GeoRoutingNetwork2002.node196.tranl 	nbAggrPktReceived 	0
scalar GeoRoutingNetwork2002.node196.tranl 	"nbAggrPktSentDown " 	0
scalar GeoRoutingNetwork2002.node196.appl 	"activity duration" 	-1
attr unit  s
scalar GeoRoutingNetwork2002.node196.appl 	firstPacketGeneration 	-1
attr unit  s
scalar GeoRoutingNetwork2002.node196.appl 	lastPacketReception 	-2
attr unit  s
scalar GeoRoutingNetwork2002.node196.appl 	nbPacketsSent 	0
scalar GeoRoutingNetwork2002.node196.appl 	nbPacketsReceived 	0
statistic GeoRoutingNetwork2002.node196.appl 	latency
field count 0
field mean nan
field stddev nan
field sum 0
field sqrsum 0
field min nan
field max nan
scalar GeoRoutingNetwork2002.node196.batteryStats 	nominal 	18
attr unit  mW-s
scalar GeoRoutingNetwork2002.node196.batteryStats 	total 	1.7504376162738
attr unit  mW-s
scalar GeoRoutingNetwork2002.node196.batteryStats 	lifetime 	-1
attr unit  s
scalar GeoRoutingNetwork2002.node196.batteryStats 	"Mean power consumption" 	1.8794516379609
attr unit  mW
scalar GeoRoutingNetwork2002.node197.nic.mac 	nbTxFrames 	6
scalar GeoRoutingNetwork2002.node197.nic.mac 	nbRxFrames 	11
scalar GeoRoutingNetwork2002.node197.nic.mac 	nbDroppedFrames 	0
scalar GeoRoutingNetwork2002.node197.nic.mac 	nbMissedAcks 	0
scalar GeoRoutingNetwork2002.node197.nic.mac 	nbRecvdAcks 	0
scalar GeoRoutingNetwork2002.node197.nic.mac 	nbTxAcks 	0
scalar GeoRoutingNetwork2002.node197.nic.mac 	nbDuplicates 	0
scalar GeoRoutingNetwork2002.node197.nic.mac 	meanBackoff 	0.0013155555555556
scalar GeoRoutingNetwork2002.node197.nic.mac 	nbBackoffs 	9
scalar GeoRoutingNetwork2002.node197.nic.mac 	backoffDurations 	0.01184
scalar GeoRoutingNetwork2002.node197.nic.phy 	nbFramesWithInterference 	4
scalar GeoRoutingNetwork2002.node197.nic.phy 	nbFramesWithoutInterference 	20
scalar GeoRoutingNetwork2002.node197.nic.phy 	nbFramesWithInterferencePartial 	2
scalar GeoRoutingNetwork2002.node197.nic.phy 	nbFramesWithoutInterferencePartial 	0
scalar GeoRoutingNetwork2002.node197.nic.phy 	nbFramesWithInterferenceDropped 	0
scalar GeoRoutingNetwork2002.node197.nic.phy 	nbFramesWithoutInterferenceDropped 	0
scalar GeoRoutingNetwork2002.node197.netwl 	"Remaining Power" 	17.93638016
scalar GeoRoutingNetwork2002.node197.tranl 	nbAggrPktReceived 	0
scalar GeoRoutingNetwork2002.node197.tranl 	"nbAggrPktSentDown " 	0
scalar GeoRoutingNetwork2002.node197.appl 	"activity duration" 	-1
attr unit  s
scalar GeoRoutingNetwork2002.node197.appl 	firstPacketGeneration 	-1
attr unit  s
scalar GeoRoutingNetwork2002.node197.appl 	lastPacketReception 	-2
attr unit  s
scalar GeoRoutingNetwork2002.node197.appl 	nbPacketsSent 	0
scalar GeoRoutingNetwork2002.node197.appl 	nbPacketsReceived 	0
statistic GeoRoutingNetwork2002.node197.appl 	latency
field count 0
field mean nan
field stddev nan
field sum 0
field sqrsum 0
field min nan
field max nan
scalar GeoRoutingNetwork2002.node197.batteryStats 	nominal 	18
attr unit  mW-s
scalar GeoRoutingNetwork2002.node197.batteryStats 	total 	1.7504376162738
attr unit  mW-s
scalar GeoRoutingNetwork2002.node197.batteryStats 	lifetime 	-1
attr unit  s
scalar GeoRoutingNetwork2002.node197.batteryStats 	"Mean power consumption" 	1.8794516379609
attr unit  mW
scalar GeoRoutingNetwork2002.node198.nic.mac 	nbTxFrames 	6
scalar GeoRoutingNetwork2002.node198.nic.mac 	nbRxFrames 	10
scalar GeoRoutingNetwork2002.node198.nic.mac 	nbDroppedFrames 	0
scalar GeoRoutingNetwork2002.node198.nic.mac 	nbMissedAcks 	0
scalar GeoRoutingNetwork2002.node198.nic.mac 	nbRecvdAcks 	0
scalar GeoRoutingNetwork2002.node198.nic.mac 	nbTxAcks 	0
scalar GeoRoutingNetwork2002.node198.nic.mac 	nbDuplicates 	0
scalar GeoRoutingNetwork2002.node198.nic.mac 	meanBackoff 	0.0010666666666667
scalar GeoRoutingNetwork2002.node198.nic.mac 	nbBackoffs 	9
scalar GeoRoutingNetwork2002.node198.nic.mac 	backoffDurations 	0.0096
scalar GeoRoutingNetwork2002.node198.nic.phy 	nbFramesWithInterference 	2
scalar GeoRoutingNetwork2002.node198.nic.phy 	nbFramesWithoutInterference 	22
scalar GeoRoutingNetwork2002.node198.nic.phy 	nbFramesWithInterferencePartial 	1
scalar GeoRoutingNetwork2002.node198.nic.phy 	nbFramesWithoutInterferencePartial 	0
scalar GeoRoutingNetwork2002.node198.nic.phy 	nbFramesWithInterferenceDropped 	2
scalar GeoRoutingNetwork2002.node198.nic.phy 	nbFramesWithoutInterferenceDropped 	0
scalar GeoRoutingNetwork2002.node198.netwl 	"Remaining Power" 	17.94059136
scalar GeoRoutingNetwork2002.node198.tranl 	nbAggrPktReceived 	0
scalar GeoRoutingNetwork2002.node198.tranl 	"nbAggrPktSentDown " 	0
scalar GeoRoutingNetwork2002.node198.appl 	"activity duration" 	-1
attr unit  s
scalar GeoRoutingNetwork2002.node198.appl 	firstPacketGeneration 	-1
attr unit  s
scalar GeoRoutingNetwork2002.node198.appl 	lastPacketReception 	-2
attr unit  s
scalar GeoRoutingNetwork2002.node198.appl 	nbPacketsSent 	0
scalar GeoRoutingNetwork2002.node198.appl 	nbPacketsReceived 	0
statistic GeoRoutingNetwork2002.node198.appl 	latency
field count 0
field mean nan
field stddev nan
field sum 0
field sqrsum 0
field min nan
field max nan
scalar GeoRoutingNetwork2002.node198.batteryStats 	nominal 	18
attr unit  mW-s
scalar GeoRoutingNetwork2002.node198.batteryStats 	total 	1.7504376162738
attr unit  mW-s
scalar GeoRoutingNetwork2002.node198.batteryStats 	lifetime 	-1
attr unit  s
scalar GeoRoutingNetwork2002.node198.batteryStats 	"Mean power consumption" 	1.8794516379609
attr unit  mW
scalar GeoRoutingNetwork2002.node199.nic.mac 	nbTxFrames 	6
scalar GeoRoutingNetwork2002.node199.nic.mac 	nbRxFrames 	5
scalar GeoRoutingNetwork2002.node199.nic.mac 	nbDroppedFrames 	0
scalar GeoRoutingNetwork2002.node199.nic.mac 	nbMissedAcks 	0
scalar GeoRoutingNetwork2002.node199.nic.mac 	nbRecvdAcks 	0
scalar GeoRoutingNetwork2002.node199.nic.mac 	nbTxAcks 	0
scalar GeoRoutingNetwork2002.node199.nic.mac 	nbDuplicates 	0
scalar GeoRoutingNetwork2002.node199.nic.mac 	meanBackoff 	0.0024436363636364
scalar GeoRoutingNetwork2002.node199.nic.mac 	nbBackoffs 	11
scalar GeoRoutingNetwork2002.node199.nic.mac 	backoffDurations 	0.02688
scalar GeoRoutingNetwork2002.node199.nic.phy 	nbFramesWithInterference 	3
scalar GeoRoutingNetwork2002.node199.nic.phy 	nbFramesWithoutInterference 	20
scalar GeoRoutingNetwork2002.node199.nic.phy 	nbFramesWithInterferencePartial 	3
scalar GeoRoutingNetwork2002.node199.nic.phy 	nbFramesWithoutInterferencePartial 	0
scalar GeoRoutingNetwork2002.node199.nic.phy 	nbFramesWithInterferenceDropped 	0
scalar GeoRoutingNetwork2002.node199.nic.phy 	nbFramesWithoutInterferenceDropped 	0
scalar GeoRoutingNetwork2002.node199.netwl 	"Remaining Power" 	17.90088576
scalar GeoRoutingNetwork2002.node199.tranl 	nbAggrPktReceived 	0
scalar GeoRoutingNetwork2002.node199.tranl 	"nbAggrPktSentDown " 	0
scalar GeoRoutingNetwork2002.node199.appl 	"activity duration" 	-1
attr unit  s
scalar GeoRoutingNetwork2002.node199.appl 	firstPacketGeneration 	-1
attr unit  s
scalar GeoRoutingNetwork2002.node199.appl 	lastPacketReception 	-2
attr unit  s
scalar GeoRoutingNetwork2002.node199.appl 	nbPacketsSent 	0
scalar GeoRoutingNetwork2002.node199.appl 	nbPacketsReceived 	0
statistic GeoRoutingNetwork2002.node199.appl 	latency
field count 0
field mean nan
field stddev nan
field sum 0
field sqrsum 0
field min nan
field max nan
scalar GeoRoutingNetwork2002.node199.batteryStats 	nominal 	18
attr unit  mW-s
scalar GeoRoutingNetwork2002.node199.batteryStats 	total 	1.7504376162738
attr unit  mW-s
scalar GeoRoutingNetwork2002.node199.batteryStats 	lifetime 	-1
attr unit  s
scalar GeoRoutingNetwork2002.node199.batteryStats 	"Mean power consumption" 	1.8794516379609
attr unit  mW
scalar GeoRoutingNetwork2002.node200.nic.mac 	nbTxFrames 	6
scalar GeoRoutingNetwork2002.node200.nic.mac 	nbRxFrames 	3
scalar GeoRoutingNetwork2002.node200.nic.mac 	nbDroppedFrames 	0
scalar GeoRoutingNetwork2002.node200.nic.mac 	nbMissedAcks 	0
scalar GeoRoutingNetwork2002.node200.nic.mac 	nbRecvdAcks 	0
scalar GeoRoutingNetwork2002.node200.nic.mac 	nbTxAcks 	0
scalar GeoRoutingNetwork2002.node200.nic.mac 	nbDuplicates 	0
scalar GeoRoutingNetwork2002.node200.nic.mac 	meanBackoff 	0.0019657142857143
scalar GeoRoutingNetwork2002.node200.nic.mac 	nbBackoffs 	14
scalar GeoRoutingNetwork2002.node200.nic.mac 	backoffDurations 	0.02752
scalar GeoRoutingNetwork2002.node200.nic.phy 	nbFramesWithInterference 	8
scalar GeoRoutingNetwork2002.node200.nic.phy 	nbFramesWithoutInterference 	22
scalar GeoRoutingNetwork2002.node200.nic.phy 	nbFramesWithInterferencePartial 	0
scalar GeoRoutingNetwork2002.node200.nic.phy 	nbFramesWithoutInterferencePartial 	0
scalar GeoRoutingNetwork2002.node200.nic.phy 	nbFramesWithInterferenceDropped 	3
scalar GeoRoutingNetwork2002.node200.nic.phy 	nbFramesWithoutInterferenceDropped 	0
scalar GeoRoutingNetwork2002.node200.netwl 	"Remaining Power" 	17.88885376
scalar GeoRoutingNetwork2002.node200.tranl 	nbAggrPktReceived 	0
scalar GeoRoutingNetwork2002.node200.tranl 	"nbAggrPktSentDown " 	0
scalar GeoRoutingNetwork2002.node200.appl 	"activity duration" 	-1
attr unit  s
scalar GeoRoutingNetwork2002.node200.appl 	firstPacketGeneration 	-1
attr unit  s
scalar GeoRoutingNetwork2002.node200.appl 	lastPacketReception 	-2
attr unit  s
scalar GeoRoutingNetwork2002.node200.appl 	nbPacketsSent 	0
scalar GeoRoutingNetwork2002.node200.appl 	nbPacketsReceived 	0
statistic GeoRoutingNetwork2002.node200.appl 	latency
field count 0
field mean nan
field stddev nan
field sum 0
field sqrsum 0
field min nan
field max nan
scalar GeoRoutingNetwork2002.node200.batteryStats 	nominal 	18
attr unit  mW-s
scalar GeoRoutingNetwork2002.node200.batteryStats 	total 	1.7504376162738
attr unit  mW-s
scalar GeoRoutingNetwork2002.node200.batteryStats 	lifetime 	-1
attr unit  s
scalar GeoRoutingNetwork2002.node200.batteryStats 	"Mean power consumption" 	1.8794516379609
attr unit  mW
