version 2
run General-0-20160304-17:37:09-6156
attr configname General
attr datetime 20160304-17:37:09
attr experiment General
attr inifile omnetpp.ini
attr iterationvars ""
attr iterationvars2 $repetition=0
attr measurement ""
attr network GeoRoutingNetwork50
attr processid 6156
attr repetition 0
attr replication #0
attr resultdir results
attr runnumber 0
attr seedset 0

scalar GeoRoutingNetwork50.node1.netwl 	"Initial Power" 	18
scalar GeoRoutingNetwork50.node2.netwl 	"Initial Power" 	18
scalar GeoRoutingNetwork50.node3.netwl 	"Initial Power" 	18
scalar GeoRoutingNetwork50.node4.netwl 	"Initial Power" 	18
scalar GeoRoutingNetwork50.node5.netwl 	"Initial Power" 	18
scalar GeoRoutingNetwork50.node6.netwl 	"Initial Power" 	18
scalar GeoRoutingNetwork50.node7.netwl 	"Initial Power" 	18
scalar GeoRoutingNetwork50.node8.netwl 	"Initial Power" 	18
scalar GeoRoutingNetwork50.node9.netwl 	"Initial Power" 	18
scalar GeoRoutingNetwork50.node10.netwl 	"Initial Power" 	18
scalar GeoRoutingNetwork50.node11.netwl 	"Initial Power" 	18
scalar GeoRoutingNetwork50.node12.netwl 	"Initial Power" 	18
scalar GeoRoutingNetwork50.node13.netwl 	"Initial Power" 	18
scalar GeoRoutingNetwork50.node14.netwl 	"Initial Power" 	18
scalar GeoRoutingNetwork50.node15.netwl 	"Initial Power" 	18
scalar GeoRoutingNetwork50.node16.netwl 	"Initial Power" 	18
scalar GeoRoutingNetwork50.node17.netwl 	"Initial Power" 	18
scalar GeoRoutingNetwork50.node18.netwl 	"Initial Power" 	18
scalar GeoRoutingNetwork50.node19.netwl 	"Initial Power" 	18
scalar GeoRoutingNetwork50.node20.netwl 	"Initial Power" 	18
scalar GeoRoutingNetwork50.node21.netwl 	"Initial Power" 	18
scalar GeoRoutingNetwork50.node22.netwl 	"Initial Power" 	18
scalar GeoRoutingNetwork50.node23.netwl 	"Initial Power" 	18
scalar GeoRoutingNetwork50.node24.netwl 	"Initial Power" 	18
scalar GeoRoutingNetwork50.node25.netwl 	"Initial Power" 	18
scalar GeoRoutingNetwork50.node26.netwl 	"Initial Power" 	18
scalar GeoRoutingNetwork50.node27.netwl 	"Initial Power" 	18
scalar GeoRoutingNetwork50.node28.netwl 	"Initial Power" 	18
scalar GeoRoutingNetwork50.node29.netwl 	"Initial Power" 	18
scalar GeoRoutingNetwork50.node30.netwl 	"Initial Power" 	18
scalar GeoRoutingNetwork50.node31.netwl 	"Initial Power" 	18
scalar GeoRoutingNetwork50.node32.netwl 	"Initial Power" 	18
scalar GeoRoutingNetwork50.node33.netwl 	"Initial Power" 	18
scalar GeoRoutingNetwork50.node34.netwl 	"Initial Power" 	18
scalar GeoRoutingNetwork50.node35.netwl 	"Initial Power" 	18
scalar GeoRoutingNetwork50.node36.netwl 	"Initial Power" 	18
scalar GeoRoutingNetwork50.node37.netwl 	"Initial Power" 	18
scalar GeoRoutingNetwork50.node38.netwl 	"Initial Power" 	18
scalar GeoRoutingNetwork50.node39.netwl 	"Initial Power" 	18
scalar GeoRoutingNetwork50.node40.netwl 	"Initial Power" 	18
scalar GeoRoutingNetwork50.node41.netwl 	"Initial Power" 	18
scalar GeoRoutingNetwork50.node42.netwl 	"Initial Power" 	18
scalar GeoRoutingNetwork50.node43.netwl 	"Initial Power" 	18
scalar GeoRoutingNetwork50.node44.netwl 	"Initial Power" 	18
scalar GeoRoutingNetwork50.node45.netwl 	"Initial Power" 	18
scalar GeoRoutingNetwork50.node46.netwl 	"Initial Power" 	18
scalar GeoRoutingNetwork50.node47.netwl 	"Initial Power" 	18
scalar GeoRoutingNetwork50.node48.netwl 	"Initial Power" 	18
scalar GeoRoutingNetwork50.node49.netwl 	"Initial Power" 	18
scalar GeoRoutingNetwork50.node50.netwl 	"Initial Power" 	18
scalar GeoRoutingNetwork50.node1.nic.mac 	nbTxFrames 	6
scalar GeoRoutingNetwork50.node1.nic.mac 	nbRxFrames 	1
scalar GeoRoutingNetwork50.node1.nic.mac 	nbDroppedFrames 	0
scalar GeoRoutingNetwork50.node1.nic.mac 	nbMissedAcks 	0
scalar GeoRoutingNetwork50.node1.nic.mac 	nbRecvdAcks 	0
scalar GeoRoutingNetwork50.node1.nic.mac 	nbTxAcks 	0
scalar GeoRoutingNetwork50.node1.nic.mac 	nbDuplicates 	0
scalar GeoRoutingNetwork50.node1.nic.mac 	meanBackoff 	0.0016
scalar GeoRoutingNetwork50.node1.nic.mac 	nbBackoffs 	10
scalar GeoRoutingNetwork50.node1.nic.mac 	backoffDurations 	0.016
scalar GeoRoutingNetwork50.node1.nic.phy 	nbFramesWithInterference 	3
scalar GeoRoutingNetwork50.node1.nic.phy 	nbFramesWithoutInterference 	12
scalar GeoRoutingNetwork50.node1.nic.phy 	nbFramesWithInterferencePartial 	0
scalar GeoRoutingNetwork50.node1.nic.phy 	nbFramesWithoutInterferencePartial 	0
scalar GeoRoutingNetwork50.node1.nic.phy 	nbFramesWithInterferenceDropped 	0
scalar GeoRoutingNetwork50.node1.nic.phy 	nbFramesWithoutInterferenceDropped 	0
scalar GeoRoutingNetwork50.node1.netwl 	"Remaining Power" 	17.92494976
scalar GeoRoutingNetwork50.node1.tranl 	nbAggrPktReceived 	0
scalar GeoRoutingNetwork50.node1.tranl 	"nbAggrPktSentDown " 	0
scalar GeoRoutingNetwork50.node1.appl 	"activity duration" 	-1
attr unit  s
scalar GeoRoutingNetwork50.node1.appl 	firstPacketGeneration 	-1
attr unit  s
scalar GeoRoutingNetwork50.node1.appl 	lastPacketReception 	-2
attr unit  s
scalar GeoRoutingNetwork50.node1.appl 	nbPacketsSent 	0
scalar GeoRoutingNetwork50.node1.appl 	nbPacketsReceived 	0
statistic GeoRoutingNetwork50.node1.appl 	latency
field count 0
field mean nan
field stddev nan
field sum 0
field sqrsum 0
field min nan
field max nan
scalar GeoRoutingNetwork50.node1.batteryStats 	nominal 	18
attr unit  mW-s
scalar GeoRoutingNetwork50.node1.batteryStats 	total 	0.080080723250425
attr unit  mW-s
scalar GeoRoutingNetwork50.node1.batteryStats 	lifetime 	-1
attr unit  s
scalar GeoRoutingNetwork50.node1.batteryStats 	"Mean power consumption" 	1.8680861595065
attr unit  mW
scalar GeoRoutingNetwork50.node2.nic.mac 	nbTxFrames 	6
scalar GeoRoutingNetwork50.node2.nic.mac 	nbRxFrames 	5
scalar GeoRoutingNetwork50.node2.nic.mac 	nbDroppedFrames 	0
scalar GeoRoutingNetwork50.node2.nic.mac 	nbMissedAcks 	0
scalar GeoRoutingNetwork50.node2.nic.mac 	nbRecvdAcks 	0
scalar GeoRoutingNetwork50.node2.nic.mac 	nbTxAcks 	0
scalar GeoRoutingNetwork50.node2.nic.mac 	nbDuplicates 	0
scalar GeoRoutingNetwork50.node2.nic.mac 	meanBackoff 	0.0010133333333333
scalar GeoRoutingNetwork50.node2.nic.mac 	nbBackoffs 	6
scalar GeoRoutingNetwork50.node2.nic.mac 	backoffDurations 	0.00608
scalar GeoRoutingNetwork50.node2.nic.phy 	nbFramesWithInterference 	0
scalar GeoRoutingNetwork50.node2.nic.phy 	nbFramesWithoutInterference 	9
scalar GeoRoutingNetwork50.node2.nic.phy 	nbFramesWithInterferencePartial 	0
scalar GeoRoutingNetwork50.node2.nic.phy 	nbFramesWithoutInterferencePartial 	0
scalar GeoRoutingNetwork50.node2.nic.phy 	nbFramesWithInterferenceDropped 	0
scalar GeoRoutingNetwork50.node2.nic.phy 	nbFramesWithoutInterferenceDropped 	0
scalar GeoRoutingNetwork50.node2.netwl 	"Remaining Power" 	17.95803776
scalar GeoRoutingNetwork50.node2.tranl 	nbAggrPktReceived 	0
scalar GeoRoutingNetwork50.node2.tranl 	"nbAggrPktSentDown " 	0
scalar GeoRoutingNetwork50.node2.appl 	"activity duration" 	-1
attr unit  s
scalar GeoRoutingNetwork50.node2.appl 	firstPacketGeneration 	-1
attr unit  s
scalar GeoRoutingNetwork50.node2.appl 	lastPacketReception 	-2
attr unit  s
scalar GeoRoutingNetwork50.node2.appl 	nbPacketsSent 	0
scalar GeoRoutingNetwork50.node2.appl 	nbPacketsReceived 	0
statistic GeoRoutingNetwork50.node2.appl 	latency
field count 0
field mean nan
field stddev nan
field sum 0
field sqrsum 0
field min nan
field max nan
scalar GeoRoutingNetwork50.node2.batteryStats 	nominal 	18
attr unit  mW-s
scalar GeoRoutingNetwork50.node2.batteryStats 	total 	0.080080723250429
attr unit  mW-s
scalar GeoRoutingNetwork50.node2.batteryStats 	lifetime 	-1
attr unit  s
scalar GeoRoutingNetwork50.node2.batteryStats 	"Mean power consumption" 	1.8680861595066
attr unit  mW
scalar GeoRoutingNetwork50.node3.nic.mac 	nbTxFrames 	6
scalar GeoRoutingNetwork50.node3.nic.mac 	nbRxFrames 	1
scalar GeoRoutingNetwork50.node3.nic.mac 	nbDroppedFrames 	0
scalar GeoRoutingNetwork50.node3.nic.mac 	nbMissedAcks 	0
scalar GeoRoutingNetwork50.node3.nic.mac 	nbRecvdAcks 	0
scalar GeoRoutingNetwork50.node3.nic.mac 	nbTxAcks 	0
scalar GeoRoutingNetwork50.node3.nic.mac 	nbDuplicates 	0
scalar GeoRoutingNetwork50.node3.nic.mac 	meanBackoff 	0.0020622222222222
scalar GeoRoutingNetwork50.node3.nic.mac 	nbBackoffs 	9
scalar GeoRoutingNetwork50.node3.nic.mac 	backoffDurations 	0.01856
scalar GeoRoutingNetwork50.node3.nic.phy 	nbFramesWithInterference 	0
scalar GeoRoutingNetwork50.node3.nic.phy 	nbFramesWithoutInterference 	9
scalar GeoRoutingNetwork50.node3.nic.phy 	nbFramesWithInterferencePartial 	0
scalar GeoRoutingNetwork50.node3.nic.phy 	nbFramesWithoutInterferencePartial 	0
scalar GeoRoutingNetwork50.node3.nic.phy 	nbFramesWithInterferenceDropped 	0
scalar GeoRoutingNetwork50.node3.nic.phy 	nbFramesWithoutInterferenceDropped 	0
scalar GeoRoutingNetwork50.node3.netwl 	"Remaining Power" 	17.92374656
scalar GeoRoutingNetwork50.node3.tranl 	nbAggrPktReceived 	0
scalar GeoRoutingNetwork50.node3.tranl 	"nbAggrPktSentDown " 	0
scalar GeoRoutingNetwork50.node3.appl 	"activity duration" 	-1
attr unit  s
scalar GeoRoutingNetwork50.node3.appl 	firstPacketGeneration 	-1
attr unit  s
scalar GeoRoutingNetwork50.node3.appl 	lastPacketReception 	-2
attr unit  s
scalar GeoRoutingNetwork50.node3.appl 	nbPacketsSent 	0
scalar GeoRoutingNetwork50.node3.appl 	nbPacketsReceived 	0
statistic GeoRoutingNetwork50.node3.appl 	latency
field count 0
field mean nan
field stddev nan
field sum 0
field sqrsum 0
field min nan
field max nan
scalar GeoRoutingNetwork50.node3.batteryStats 	nominal 	18
attr unit  mW-s
scalar GeoRoutingNetwork50.node3.batteryStats 	total 	0.080080723250425
attr unit  mW-s
scalar GeoRoutingNetwork50.node3.batteryStats 	lifetime 	-1
attr unit  s
scalar GeoRoutingNetwork50.node3.batteryStats 	"Mean power consumption" 	1.8680861595065
attr unit  mW
scalar GeoRoutingNetwork50.node4.nic.mac 	nbTxFrames 	6
scalar GeoRoutingNetwork50.node4.nic.mac 	nbRxFrames 	0
scalar GeoRoutingNetwork50.node4.nic.mac 	nbDroppedFrames 	0
scalar GeoRoutingNetwork50.node4.nic.mac 	nbMissedAcks 	0
scalar GeoRoutingNetwork50.node4.nic.mac 	nbRecvdAcks 	0
scalar GeoRoutingNetwork50.node4.nic.mac 	nbTxAcks 	0
scalar GeoRoutingNetwork50.node4.nic.mac 	nbDuplicates 	0
scalar GeoRoutingNetwork50.node4.nic.mac 	meanBackoff 	0.00216
scalar GeoRoutingNetwork50.node4.nic.mac 	nbBackoffs 	8
scalar GeoRoutingNetwork50.node4.nic.mac 	backoffDurations 	0.01728
scalar GeoRoutingNetwork50.node4.nic.phy 	nbFramesWithInterference 	0
scalar GeoRoutingNetwork50.node4.nic.phy 	nbFramesWithoutInterference 	7
scalar GeoRoutingNetwork50.node4.nic.phy 	nbFramesWithInterferencePartial 	0
scalar GeoRoutingNetwork50.node4.nic.phy 	nbFramesWithoutInterferencePartial 	0
scalar GeoRoutingNetwork50.node4.nic.phy 	nbFramesWithInterferenceDropped 	1
scalar GeoRoutingNetwork50.node4.nic.phy 	nbFramesWithoutInterferenceDropped 	0
scalar GeoRoutingNetwork50.node4.netwl 	"Remaining Power" 	17.92976256
scalar GeoRoutingNetwork50.node4.tranl 	nbAggrPktReceived 	0
scalar GeoRoutingNetwork50.node4.tranl 	"nbAggrPktSentDown " 	0
scalar GeoRoutingNetwork50.node4.appl 	"activity duration" 	-1
attr unit  s
scalar GeoRoutingNetwork50.node4.appl 	firstPacketGeneration 	-1
attr unit  s
scalar GeoRoutingNetwork50.node4.appl 	lastPacketReception 	-2
attr unit  s
scalar GeoRoutingNetwork50.node4.appl 	nbPacketsSent 	0
scalar GeoRoutingNetwork50.node4.appl 	nbPacketsReceived 	0
statistic GeoRoutingNetwork50.node4.appl 	latency
field count 0
field mean nan
field stddev nan
field sum 0
field sqrsum 0
field min nan
field max nan
scalar GeoRoutingNetwork50.node4.batteryStats 	nominal 	18
attr unit  mW-s
scalar GeoRoutingNetwork50.node4.batteryStats 	total 	0.080080723250422
attr unit  mW-s
scalar GeoRoutingNetwork50.node4.batteryStats 	lifetime 	-1
attr unit  s
scalar GeoRoutingNetwork50.node4.batteryStats 	"Mean power consumption" 	1.8680861595064
attr unit  mW
scalar GeoRoutingNetwork50.node5.nic.mac 	nbTxFrames 	6
scalar GeoRoutingNetwork50.node5.nic.mac 	nbRxFrames 	1
scalar GeoRoutingNetwork50.node5.nic.mac 	nbDroppedFrames 	0
scalar GeoRoutingNetwork50.node5.nic.mac 	nbMissedAcks 	0
scalar GeoRoutingNetwork50.node5.nic.mac 	nbRecvdAcks 	0
scalar GeoRoutingNetwork50.node5.nic.mac 	nbTxAcks 	0
scalar GeoRoutingNetwork50.node5.nic.mac 	nbDuplicates 	0
scalar GeoRoutingNetwork50.node5.nic.mac 	meanBackoff 	0.0018133333333333
scalar GeoRoutingNetwork50.node5.nic.mac 	nbBackoffs 	9
scalar GeoRoutingNetwork50.node5.nic.mac 	backoffDurations 	0.01632
scalar GeoRoutingNetwork50.node5.nic.phy 	nbFramesWithInterference 	0
scalar GeoRoutingNetwork50.node5.nic.phy 	nbFramesWithoutInterference 	8
scalar GeoRoutingNetwork50.node5.nic.phy 	nbFramesWithInterferencePartial 	0
scalar GeoRoutingNetwork50.node5.nic.phy 	nbFramesWithoutInterferencePartial 	0
scalar GeoRoutingNetwork50.node5.nic.phy 	nbFramesWithInterferenceDropped 	0
scalar GeoRoutingNetwork50.node5.nic.phy 	nbFramesWithoutInterferenceDropped 	0
scalar GeoRoutingNetwork50.node5.netwl 	"Remaining Power" 	17.92795776
scalar GeoRoutingNetwork50.node5.tranl 	nbAggrPktReceived 	0
scalar GeoRoutingNetwork50.node5.tranl 	"nbAggrPktSentDown " 	0
scalar GeoRoutingNetwork50.node5.appl 	"activity duration" 	-1
attr unit  s
scalar GeoRoutingNetwork50.node5.appl 	firstPacketGeneration 	-1
attr unit  s
scalar GeoRoutingNetwork50.node5.appl 	lastPacketReception 	-2
attr unit  s
scalar GeoRoutingNetwork50.node5.appl 	nbPacketsSent 	0
scalar GeoRoutingNetwork50.node5.appl 	nbPacketsReceived 	0
statistic GeoRoutingNetwork50.node5.appl 	latency
field count 0
field mean nan
field stddev nan
field sum 0
field sqrsum 0
field min nan
field max nan
scalar GeoRoutingNetwork50.node5.batteryStats 	nominal 	18
attr unit  mW-s
scalar GeoRoutingNetwork50.node5.batteryStats 	total 	0.080080723250433
attr unit  mW-s
scalar GeoRoutingNetwork50.node5.batteryStats 	lifetime 	-1
attr unit  s
scalar GeoRoutingNetwork50.node5.batteryStats 	"Mean power consumption" 	1.8680861595067
attr unit  mW
scalar GeoRoutingNetwork50.node6.nic.mac 	nbTxFrames 	6
scalar GeoRoutingNetwork50.node6.nic.mac 	nbRxFrames 	0
scalar GeoRoutingNetwork50.node6.nic.mac 	nbDroppedFrames 	0
scalar GeoRoutingNetwork50.node6.nic.mac 	nbMissedAcks 	0
scalar GeoRoutingNetwork50.node6.nic.mac 	nbRecvdAcks 	0
scalar GeoRoutingNetwork50.node6.nic.mac 	nbTxAcks 	0
scalar GeoRoutingNetwork50.node6.nic.mac 	nbDuplicates 	0
scalar GeoRoutingNetwork50.node6.nic.mac 	meanBackoff 	0.00144
scalar GeoRoutingNetwork50.node6.nic.mac 	nbBackoffs 	6
scalar GeoRoutingNetwork50.node6.nic.mac 	backoffDurations 	0.00864
scalar GeoRoutingNetwork50.node6.nic.phy 	nbFramesWithInterference 	0
scalar GeoRoutingNetwork50.node6.nic.phy 	nbFramesWithoutInterference 	0
scalar GeoRoutingNetwork50.node6.nic.phy 	nbFramesWithInterferencePartial 	0
scalar GeoRoutingNetwork50.node6.nic.phy 	nbFramesWithoutInterferencePartial 	0
scalar GeoRoutingNetwork50.node6.nic.phy 	nbFramesWithInterferenceDropped 	0
scalar GeoRoutingNetwork50.node6.nic.phy 	nbFramesWithoutInterferenceDropped 	0
scalar GeoRoutingNetwork50.node6.netwl 	"Remaining Power" 	17.95322496
scalar GeoRoutingNetwork50.node6.tranl 	nbAggrPktReceived 	0
scalar GeoRoutingNetwork50.node6.tranl 	"nbAggrPktSentDown " 	0
scalar GeoRoutingNetwork50.node6.appl 	"activity duration" 	-1
attr unit  s
scalar GeoRoutingNetwork50.node6.appl 	firstPacketGeneration 	-1
attr unit  s
scalar GeoRoutingNetwork50.node6.appl 	lastPacketReception 	-2
attr unit  s
scalar GeoRoutingNetwork50.node6.appl 	nbPacketsSent 	0
scalar GeoRoutingNetwork50.node6.appl 	nbPacketsReceived 	0
statistic GeoRoutingNetwork50.node6.appl 	latency
field count 0
field mean nan
field stddev nan
field sum 0
field sqrsum 0
field min nan
field max nan
scalar GeoRoutingNetwork50.node6.batteryStats 	nominal 	18
attr unit  mW-s
scalar GeoRoutingNetwork50.node6.batteryStats 	total 	0.080080723250429
attr unit  mW-s
scalar GeoRoutingNetwork50.node6.batteryStats 	lifetime 	-1
attr unit  s
scalar GeoRoutingNetwork50.node6.batteryStats 	"Mean power consumption" 	1.8680861595066
attr unit  mW
scalar GeoRoutingNetwork50.node7.nic.mac 	nbTxFrames 	4
scalar GeoRoutingNetwork50.node7.nic.mac 	nbRxFrames 	0
scalar GeoRoutingNetwork50.node7.nic.mac 	nbDroppedFrames 	0
scalar GeoRoutingNetwork50.node7.nic.mac 	nbMissedAcks 	0
scalar GeoRoutingNetwork50.node7.nic.mac 	nbRecvdAcks 	0
scalar GeoRoutingNetwork50.node7.nic.mac 	nbTxAcks 	0
scalar GeoRoutingNetwork50.node7.nic.mac 	nbDuplicates 	0
scalar GeoRoutingNetwork50.node7.nic.mac 	meanBackoff 	0.002368
scalar GeoRoutingNetwork50.node7.nic.mac 	nbBackoffs 	10
scalar GeoRoutingNetwork50.node7.nic.mac 	backoffDurations 	0.02368
scalar GeoRoutingNetwork50.node7.nic.phy 	nbFramesWithInterference 	4
scalar GeoRoutingNetwork50.node7.nic.phy 	nbFramesWithoutInterference 	18
scalar GeoRoutingNetwork50.node7.nic.phy 	nbFramesWithInterferencePartial 	0
scalar GeoRoutingNetwork50.node7.nic.phy 	nbFramesWithoutInterferencePartial 	0
scalar GeoRoutingNetwork50.node7.nic.phy 	nbFramesWithInterferenceDropped 	3
scalar GeoRoutingNetwork50.node7.nic.phy 	nbFramesWithoutInterferenceDropped 	0
scalar GeoRoutingNetwork50.node7.netwl 	"Remaining Power" 	17.92116992
scalar GeoRoutingNetwork50.node7.tranl 	nbAggrPktReceived 	0
scalar GeoRoutingNetwork50.node7.tranl 	"nbAggrPktSentDown " 	0
scalar GeoRoutingNetwork50.node7.appl 	"activity duration" 	-1
attr unit  s
scalar GeoRoutingNetwork50.node7.appl 	firstPacketGeneration 	-1
attr unit  s
scalar GeoRoutingNetwork50.node7.appl 	lastPacketReception 	-2
attr unit  s
scalar GeoRoutingNetwork50.node7.appl 	nbPacketsSent 	0
scalar GeoRoutingNetwork50.node7.appl 	nbPacketsReceived 	0
statistic GeoRoutingNetwork50.node7.appl 	latency
field count 0
field mean nan
field stddev nan
field sum 0
field sqrsum 0
field min nan
field max nan
scalar GeoRoutingNetwork50.node7.batteryStats 	nominal 	18
attr unit  mW-s
scalar GeoRoutingNetwork50.node7.batteryStats 	total 	0.080250963250428
attr unit  mW-s
scalar GeoRoutingNetwork50.node7.batteryStats 	lifetime 	-1
attr unit  s
scalar GeoRoutingNetwork50.node7.batteryStats 	"Mean power consumption" 	1.8720574396709
attr unit  mW
scalar GeoRoutingNetwork50.node8.nic.mac 	nbTxFrames 	6
scalar GeoRoutingNetwork50.node8.nic.mac 	nbRxFrames 	1
scalar GeoRoutingNetwork50.node8.nic.mac 	nbDroppedFrames 	0
scalar GeoRoutingNetwork50.node8.nic.mac 	nbMissedAcks 	0
scalar GeoRoutingNetwork50.node8.nic.mac 	nbRecvdAcks 	0
scalar GeoRoutingNetwork50.node8.nic.mac 	nbTxAcks 	0
scalar GeoRoutingNetwork50.node8.nic.mac 	nbDuplicates 	0
scalar GeoRoutingNetwork50.node8.nic.mac 	meanBackoff 	0.0017371428571429
scalar GeoRoutingNetwork50.node8.nic.mac 	nbBackoffs 	7
scalar GeoRoutingNetwork50.node8.nic.mac 	backoffDurations 	0.01216
scalar GeoRoutingNetwork50.node8.nic.phy 	nbFramesWithInterference 	0
scalar GeoRoutingNetwork50.node8.nic.phy 	nbFramesWithoutInterference 	3
scalar GeoRoutingNetwork50.node8.nic.phy 	nbFramesWithInterferencePartial 	0
scalar GeoRoutingNetwork50.node8.nic.phy 	nbFramesWithoutInterferencePartial 	0
scalar GeoRoutingNetwork50.node8.nic.phy 	nbFramesWithInterferenceDropped 	0
scalar GeoRoutingNetwork50.node8.nic.phy 	nbFramesWithoutInterferenceDropped 	0
scalar GeoRoutingNetwork50.node8.netwl 	"Remaining Power" 	17.94299776
scalar GeoRoutingNetwork50.node8.tranl 	nbAggrPktReceived 	0
scalar GeoRoutingNetwork50.node8.tranl 	"nbAggrPktSentDown " 	0
scalar GeoRoutingNetwork50.node8.appl 	"activity duration" 	-1
attr unit  s
scalar GeoRoutingNetwork50.node8.appl 	firstPacketGeneration 	-1
attr unit  s
scalar GeoRoutingNetwork50.node8.appl 	lastPacketReception 	-2
attr unit  s
scalar GeoRoutingNetwork50.node8.appl 	nbPacketsSent 	0
scalar GeoRoutingNetwork50.node8.appl 	nbPacketsReceived 	0
statistic GeoRoutingNetwork50.node8.appl 	latency
field count 0
field mean nan
field stddev nan
field sum 0
field sqrsum 0
field min nan
field max nan
scalar GeoRoutingNetwork50.node8.batteryStats 	nominal 	18
attr unit  mW-s
scalar GeoRoutingNetwork50.node8.batteryStats 	total 	0.080080723250422
attr unit  mW-s
scalar GeoRoutingNetwork50.node8.batteryStats 	lifetime 	-1
attr unit  s
scalar GeoRoutingNetwork50.node8.batteryStats 	"Mean power consumption" 	1.8680861595064
attr unit  mW
scalar GeoRoutingNetwork50.node9.nic.mac 	nbTxFrames 	6
scalar GeoRoutingNetwork50.node9.nic.mac 	nbRxFrames 	9
scalar GeoRoutingNetwork50.node9.nic.mac 	nbDroppedFrames 	0
scalar GeoRoutingNetwork50.node9.nic.mac 	nbMissedAcks 	0
scalar GeoRoutingNetwork50.node9.nic.mac 	nbRecvdAcks 	0
scalar GeoRoutingNetwork50.node9.nic.mac 	nbTxAcks 	0
scalar GeoRoutingNetwork50.node9.nic.mac 	nbDuplicates 	0
scalar GeoRoutingNetwork50.node9.nic.mac 	meanBackoff 	0.0011428571428571
scalar GeoRoutingNetwork50.node9.nic.mac 	nbBackoffs 	7
scalar GeoRoutingNetwork50.node9.nic.mac 	backoffDurations 	0.008
scalar GeoRoutingNetwork50.node9.nic.phy 	nbFramesWithInterference 	5
scalar GeoRoutingNetwork50.node9.nic.phy 	nbFramesWithoutInterference 	14
scalar GeoRoutingNetwork50.node9.nic.phy 	nbFramesWithInterferencePartial 	0
scalar GeoRoutingNetwork50.node9.nic.phy 	nbFramesWithoutInterferencePartial 	0
scalar GeoRoutingNetwork50.node9.nic.phy 	nbFramesWithInterferenceDropped 	1
scalar GeoRoutingNetwork50.node9.nic.phy 	nbFramesWithoutInterferenceDropped 	0
scalar GeoRoutingNetwork50.node9.netwl 	"Remaining Power" 	17.95081856
scalar GeoRoutingNetwork50.node9.tranl 	nbAggrPktReceived 	0
scalar GeoRoutingNetwork50.node9.tranl 	"nbAggrPktSentDown " 	0
scalar GeoRoutingNetwork50.node9.appl 	"activity duration" 	-1
attr unit  s
scalar GeoRoutingNetwork50.node9.appl 	firstPacketGeneration 	-1
attr unit  s
scalar GeoRoutingNetwork50.node9.appl 	lastPacketReception 	-2
attr unit  s
scalar GeoRoutingNetwork50.node9.appl 	nbPacketsSent 	0
scalar GeoRoutingNetwork50.node9.appl 	nbPacketsReceived 	0
statistic GeoRoutingNetwork50.node9.appl 	latency
field count 0
field mean nan
field stddev nan
field sum 0
field sqrsum 0
field min nan
field max nan
scalar GeoRoutingNetwork50.node9.batteryStats 	nominal 	18
attr unit  mW-s
scalar GeoRoutingNetwork50.node9.batteryStats 	total 	0.080080723250429
attr unit  mW-s
scalar GeoRoutingNetwork50.node9.batteryStats 	lifetime 	-1
attr unit  s
scalar GeoRoutingNetwork50.node9.batteryStats 	"Mean power consumption" 	1.8680861595066
attr unit  mW
scalar GeoRoutingNetwork50.node10.nic.mac 	nbTxFrames 	6
scalar GeoRoutingNetwork50.node10.nic.mac 	nbRxFrames 	0
scalar GeoRoutingNetwork50.node10.nic.mac 	nbDroppedFrames 	0
scalar GeoRoutingNetwork50.node10.nic.mac 	nbMissedAcks 	0
scalar GeoRoutingNetwork50.node10.nic.mac 	nbRecvdAcks 	0
scalar GeoRoutingNetwork50.node10.nic.mac 	nbTxAcks 	0
scalar GeoRoutingNetwork50.node10.nic.mac 	nbDuplicates 	0
scalar GeoRoutingNetwork50.node10.nic.mac 	meanBackoff 	0.00074666666666667
scalar GeoRoutingNetwork50.node10.nic.mac 	nbBackoffs 	6
scalar GeoRoutingNetwork50.node10.nic.mac 	backoffDurations 	0.00448
scalar GeoRoutingNetwork50.node10.nic.phy 	nbFramesWithInterference 	0
scalar GeoRoutingNetwork50.node10.nic.phy 	nbFramesWithoutInterference 	0
scalar GeoRoutingNetwork50.node10.nic.phy 	nbFramesWithInterferencePartial 	0
scalar GeoRoutingNetwork50.node10.nic.phy 	nbFramesWithoutInterferencePartial 	0
scalar GeoRoutingNetwork50.node10.nic.phy 	nbFramesWithInterferenceDropped 	0
scalar GeoRoutingNetwork50.node10.nic.phy 	nbFramesWithoutInterferenceDropped 	0
scalar GeoRoutingNetwork50.node10.netwl 	"Remaining Power" 	17.96104576
scalar GeoRoutingNetwork50.node10.tranl 	nbAggrPktReceived 	0
scalar GeoRoutingNetwork50.node10.tranl 	"nbAggrPktSentDown " 	0
scalar GeoRoutingNetwork50.node10.appl 	"activity duration" 	-1
attr unit  s
scalar GeoRoutingNetwork50.node10.appl 	firstPacketGeneration 	-1
attr unit  s
scalar GeoRoutingNetwork50.node10.appl 	lastPacketReception 	-2
attr unit  s
scalar GeoRoutingNetwork50.node10.appl 	nbPacketsSent 	0
scalar GeoRoutingNetwork50.node10.appl 	nbPacketsReceived 	0
statistic GeoRoutingNetwork50.node10.appl 	latency
field count 0
field mean nan
field stddev nan
field sum 0
field sqrsum 0
field min nan
field max nan
scalar GeoRoutingNetwork50.node10.batteryStats 	nominal 	18
attr unit  mW-s
scalar GeoRoutingNetwork50.node10.batteryStats 	total 	0.080080723250429
attr unit  mW-s
scalar GeoRoutingNetwork50.node10.batteryStats 	lifetime 	-1
attr unit  s
scalar GeoRoutingNetwork50.node10.batteryStats 	"Mean power consumption" 	1.8680861595066
attr unit  mW
scalar GeoRoutingNetwork50.node11.nic.mac 	nbTxFrames 	4
scalar GeoRoutingNetwork50.node11.nic.mac 	nbRxFrames 	0
scalar GeoRoutingNetwork50.node11.nic.mac 	nbDroppedFrames 	0
scalar GeoRoutingNetwork50.node11.nic.mac 	nbMissedAcks 	0
scalar GeoRoutingNetwork50.node11.nic.mac 	nbRecvdAcks 	0
scalar GeoRoutingNetwork50.node11.nic.mac 	nbTxAcks 	0
scalar GeoRoutingNetwork50.node11.nic.mac 	nbDuplicates 	0
scalar GeoRoutingNetwork50.node11.nic.mac 	meanBackoff 	0.0024888888888889
scalar GeoRoutingNetwork50.node11.nic.mac 	nbBackoffs 	9
scalar GeoRoutingNetwork50.node11.nic.mac 	backoffDurations 	0.0224
scalar GeoRoutingNetwork50.node11.nic.phy 	nbFramesWithInterference 	4
scalar GeoRoutingNetwork50.node11.nic.phy 	nbFramesWithoutInterference 	13
scalar GeoRoutingNetwork50.node11.nic.phy 	nbFramesWithInterferencePartial 	0
scalar GeoRoutingNetwork50.node11.nic.phy 	nbFramesWithoutInterferencePartial 	0
scalar GeoRoutingNetwork50.node11.nic.phy 	nbFramesWithInterferenceDropped 	1
scalar GeoRoutingNetwork50.node11.nic.phy 	nbFramesWithoutInterferenceDropped 	0
scalar GeoRoutingNetwork50.node11.netwl 	"Remaining Power" 	17.92333568
scalar GeoRoutingNetwork50.node11.tranl 	nbAggrPktReceived 	0
scalar GeoRoutingNetwork50.node11.tranl 	"nbAggrPktSentDown " 	0
scalar GeoRoutingNetwork50.node11.appl 	"activity duration" 	-1
attr unit  s
scalar GeoRoutingNetwork50.node11.appl 	firstPacketGeneration 	-1
attr unit  s
scalar GeoRoutingNetwork50.node11.appl 	lastPacketReception 	-2
attr unit  s
scalar GeoRoutingNetwork50.node11.appl 	nbPacketsSent 	0
scalar GeoRoutingNetwork50.node11.appl 	nbPacketsReceived 	0
statistic GeoRoutingNetwork50.node11.appl 	latency
field count 0
field mean nan
field stddev nan
field sum 0
field sqrsum 0
field min nan
field max nan
scalar GeoRoutingNetwork50.node11.batteryStats 	nominal 	18
attr unit  mW-s
scalar GeoRoutingNetwork50.node11.batteryStats 	total 	0.080250963250432
attr unit  mW-s
scalar GeoRoutingNetwork50.node11.batteryStats 	lifetime 	-1
attr unit  s
scalar GeoRoutingNetwork50.node11.batteryStats 	"Mean power consumption" 	1.872057439671
attr unit  mW
scalar GeoRoutingNetwork50.node12.nic.mac 	nbTxFrames 	6
scalar GeoRoutingNetwork50.node12.nic.mac 	nbRxFrames 	2
scalar GeoRoutingNetwork50.node12.nic.mac 	nbDroppedFrames 	0
scalar GeoRoutingNetwork50.node12.nic.mac 	nbMissedAcks 	0
scalar GeoRoutingNetwork50.node12.nic.mac 	nbRecvdAcks 	0
scalar GeoRoutingNetwork50.node12.nic.mac 	nbTxAcks 	0
scalar GeoRoutingNetwork50.node12.nic.mac 	nbDuplicates 	0
scalar GeoRoutingNetwork50.node12.nic.mac 	meanBackoff 	0.0016914285714286
scalar GeoRoutingNetwork50.node12.nic.mac 	nbBackoffs 	7
scalar GeoRoutingNetwork50.node12.nic.mac 	backoffDurations 	0.01184
scalar GeoRoutingNetwork50.node12.nic.phy 	nbFramesWithInterference 	0
scalar GeoRoutingNetwork50.node12.nic.phy 	nbFramesWithoutInterference 	17
scalar GeoRoutingNetwork50.node12.nic.phy 	nbFramesWithInterferencePartial 	0
scalar GeoRoutingNetwork50.node12.nic.phy 	nbFramesWithoutInterferencePartial 	0
scalar GeoRoutingNetwork50.node12.nic.phy 	nbFramesWithInterferenceDropped 	0
scalar GeoRoutingNetwork50.node12.nic.phy 	nbFramesWithoutInterferenceDropped 	0
scalar GeoRoutingNetwork50.node12.netwl 	"Remaining Power" 	17.94359936
scalar GeoRoutingNetwork50.node12.tranl 	nbAggrPktReceived 	0
scalar GeoRoutingNetwork50.node12.tranl 	"nbAggrPktSentDown " 	0
scalar GeoRoutingNetwork50.node12.appl 	"activity duration" 	-1
attr unit  s
scalar GeoRoutingNetwork50.node12.appl 	firstPacketGeneration 	-1
attr unit  s
scalar GeoRoutingNetwork50.node12.appl 	lastPacketReception 	-2
attr unit  s
scalar GeoRoutingNetwork50.node12.appl 	nbPacketsSent 	0
scalar GeoRoutingNetwork50.node12.appl 	nbPacketsReceived 	0
statistic GeoRoutingNetwork50.node12.appl 	latency
field count 0
field mean nan
field stddev nan
field sum 0
field sqrsum 0
field min nan
field max nan
scalar GeoRoutingNetwork50.node12.batteryStats 	nominal 	18
attr unit  mW-s
scalar GeoRoutingNetwork50.node12.batteryStats 	total 	0.080080723250429
attr unit  mW-s
scalar GeoRoutingNetwork50.node12.batteryStats 	lifetime 	-1
attr unit  s
scalar GeoRoutingNetwork50.node12.batteryStats 	"Mean power consumption" 	1.8680861595066
attr unit  mW
scalar GeoRoutingNetwork50.node13.nic.mac 	nbTxFrames 	6
scalar GeoRoutingNetwork50.node13.nic.mac 	nbRxFrames 	7
scalar GeoRoutingNetwork50.node13.nic.mac 	nbDroppedFrames 	0
scalar GeoRoutingNetwork50.node13.nic.mac 	nbMissedAcks 	0
scalar GeoRoutingNetwork50.node13.nic.mac 	nbRecvdAcks 	0
scalar GeoRoutingNetwork50.node13.nic.mac 	nbTxAcks 	0
scalar GeoRoutingNetwork50.node13.nic.mac 	nbDuplicates 	0
scalar GeoRoutingNetwork50.node13.nic.mac 	meanBackoff 	0.00112
scalar GeoRoutingNetwork50.node13.nic.mac 	nbBackoffs 	6
scalar GeoRoutingNetwork50.node13.nic.mac 	backoffDurations 	0.00672
scalar GeoRoutingNetwork50.node13.nic.phy 	nbFramesWithInterference 	0
scalar GeoRoutingNetwork50.node13.nic.phy 	nbFramesWithoutInterference 	12
scalar GeoRoutingNetwork50.node13.nic.phy 	nbFramesWithInterferencePartial 	0
scalar GeoRoutingNetwork50.node13.nic.phy 	nbFramesWithoutInterferencePartial 	0
scalar GeoRoutingNetwork50.node13.nic.phy 	nbFramesWithInterferenceDropped 	0
scalar GeoRoutingNetwork50.node13.nic.phy 	nbFramesWithoutInterferenceDropped 	0
scalar GeoRoutingNetwork50.node13.netwl 	"Remaining Power" 	17.95683456
scalar GeoRoutingNetwork50.node13.tranl 	nbAggrPktReceived 	0
scalar GeoRoutingNetwork50.node13.tranl 	"nbAggrPktSentDown " 	0
scalar GeoRoutingNetwork50.node13.appl 	"activity duration" 	-1
attr unit  s
scalar GeoRoutingNetwork50.node13.appl 	firstPacketGeneration 	-1
attr unit  s
scalar GeoRoutingNetwork50.node13.appl 	lastPacketReception 	-2
attr unit  s
scalar GeoRoutingNetwork50.node13.appl 	nbPacketsSent 	0
scalar GeoRoutingNetwork50.node13.appl 	nbPacketsReceived 	0
statistic GeoRoutingNetwork50.node13.appl 	latency
field count 0
field mean nan
field stddev nan
field sum 0
field sqrsum 0
field min nan
field max nan
scalar GeoRoutingNetwork50.node13.batteryStats 	nominal 	18
attr unit  mW-s
scalar GeoRoutingNetwork50.node13.batteryStats 	total 	0.080080723250433
attr unit  mW-s
scalar GeoRoutingNetwork50.node13.batteryStats 	lifetime 	-1
attr unit  s
scalar GeoRoutingNetwork50.node13.batteryStats 	"Mean power consumption" 	1.8680861595067
attr unit  mW
scalar GeoRoutingNetwork50.node14.nic.mac 	nbTxFrames 	5
scalar GeoRoutingNetwork50.node14.nic.mac 	nbRxFrames 	0
scalar GeoRoutingNetwork50.node14.nic.mac 	nbDroppedFrames 	0
scalar GeoRoutingNetwork50.node14.nic.mac 	nbMissedAcks 	0
scalar GeoRoutingNetwork50.node14.nic.mac 	nbRecvdAcks 	0
scalar GeoRoutingNetwork50.node14.nic.mac 	nbTxAcks 	0
scalar GeoRoutingNetwork50.node14.nic.mac 	nbDuplicates 	0
scalar GeoRoutingNetwork50.node14.nic.mac 	meanBackoff 	0.0024177777777778
scalar GeoRoutingNetwork50.node14.nic.mac 	nbBackoffs 	9
scalar GeoRoutingNetwork50.node14.nic.mac 	backoffDurations 	0.02176
scalar GeoRoutingNetwork50.node14.nic.phy 	nbFramesWithInterference 	0
scalar GeoRoutingNetwork50.node14.nic.phy 	nbFramesWithoutInterference 	11
scalar GeoRoutingNetwork50.node14.nic.phy 	nbFramesWithInterferencePartial 	0
scalar GeoRoutingNetwork50.node14.nic.phy 	nbFramesWithoutInterferencePartial 	0
scalar GeoRoutingNetwork50.node14.nic.phy 	nbFramesWithInterferenceDropped 	0
scalar GeoRoutingNetwork50.node14.nic.phy 	nbFramesWithoutInterferenceDropped 	0
scalar GeoRoutingNetwork50.node14.netwl 	"Remaining Power" 	17.92312
scalar GeoRoutingNetwork50.node14.tranl 	nbAggrPktReceived 	0
scalar GeoRoutingNetwork50.node14.tranl 	"nbAggrPktSentDown " 	0
scalar GeoRoutingNetwork50.node14.appl 	"activity duration" 	-1
attr unit  s
scalar GeoRoutingNetwork50.node14.appl 	firstPacketGeneration 	-1
attr unit  s
scalar GeoRoutingNetwork50.node14.appl 	lastPacketReception 	-2
attr unit  s
scalar GeoRoutingNetwork50.node14.appl 	nbPacketsSent 	0
scalar GeoRoutingNetwork50.node14.appl 	nbPacketsReceived 	0
statistic GeoRoutingNetwork50.node14.appl 	latency
field count 0
field mean nan
field stddev nan
field sum 0
field sqrsum 0
field min nan
field max nan
scalar GeoRoutingNetwork50.node14.batteryStats 	nominal 	18
attr unit  mW-s
scalar GeoRoutingNetwork50.node14.batteryStats 	total 	0.080165843250427
attr unit  mW-s
scalar GeoRoutingNetwork50.node14.batteryStats 	lifetime 	-1
attr unit  s
scalar GeoRoutingNetwork50.node14.batteryStats 	"Mean power consumption" 	1.8700717995887
attr unit  mW
scalar GeoRoutingNetwork50.node15.nic.mac 	nbTxFrames 	6
scalar GeoRoutingNetwork50.node15.nic.mac 	nbRxFrames 	1
scalar GeoRoutingNetwork50.node15.nic.mac 	nbDroppedFrames 	0
scalar GeoRoutingNetwork50.node15.nic.mac 	nbMissedAcks 	0
scalar GeoRoutingNetwork50.node15.nic.mac 	nbRecvdAcks 	0
scalar GeoRoutingNetwork50.node15.nic.mac 	nbTxAcks 	0
scalar GeoRoutingNetwork50.node15.nic.mac 	nbDuplicates 	0
scalar GeoRoutingNetwork50.node15.nic.mac 	meanBackoff 	0.00188
scalar GeoRoutingNetwork50.node15.nic.mac 	nbBackoffs 	8
scalar GeoRoutingNetwork50.node15.nic.mac 	backoffDurations 	0.01504
scalar GeoRoutingNetwork50.node15.nic.phy 	nbFramesWithInterference 	2
scalar GeoRoutingNetwork50.node15.nic.phy 	nbFramesWithoutInterference 	10
scalar GeoRoutingNetwork50.node15.nic.phy 	nbFramesWithInterferencePartial 	0
scalar GeoRoutingNetwork50.node15.nic.phy 	nbFramesWithoutInterferencePartial 	0
scalar GeoRoutingNetwork50.node15.nic.phy 	nbFramesWithInterferenceDropped 	1
scalar GeoRoutingNetwork50.node15.nic.phy 	nbFramesWithoutInterferenceDropped 	0
scalar GeoRoutingNetwork50.node15.netwl 	"Remaining Power" 	17.93397376
scalar GeoRoutingNetwork50.node15.tranl 	nbAggrPktReceived 	0
scalar GeoRoutingNetwork50.node15.tranl 	"nbAggrPktSentDown " 	0
scalar GeoRoutingNetwork50.node15.appl 	"activity duration" 	-1
attr unit  s
scalar GeoRoutingNetwork50.node15.appl 	firstPacketGeneration 	-1
attr unit  s
scalar GeoRoutingNetwork50.node15.appl 	lastPacketReception 	-2
attr unit  s
scalar GeoRoutingNetwork50.node15.appl 	nbPacketsSent 	0
scalar GeoRoutingNetwork50.node15.appl 	nbPacketsReceived 	0
statistic GeoRoutingNetwork50.node15.appl 	latency
field count 0
field mean nan
field stddev nan
field sum 0
field sqrsum 0
field min nan
field max nan
scalar GeoRoutingNetwork50.node15.batteryStats 	nominal 	18
attr unit  mW-s
scalar GeoRoutingNetwork50.node15.batteryStats 	total 	0.080080723250425
attr unit  mW-s
scalar GeoRoutingNetwork50.node15.batteryStats 	lifetime 	-1
attr unit  s
scalar GeoRoutingNetwork50.node15.batteryStats 	"Mean power consumption" 	1.8680861595065
attr unit  mW
scalar GeoRoutingNetwork50.node16.nic.mac 	nbTxFrames 	6
scalar GeoRoutingNetwork50.node16.nic.mac 	nbRxFrames 	0
scalar GeoRoutingNetwork50.node16.nic.mac 	nbDroppedFrames 	0
scalar GeoRoutingNetwork50.node16.nic.mac 	nbMissedAcks 	0
scalar GeoRoutingNetwork50.node16.nic.mac 	nbRecvdAcks 	0
scalar GeoRoutingNetwork50.node16.nic.mac 	nbTxAcks 	0
scalar GeoRoutingNetwork50.node16.nic.mac 	nbDuplicates 	0
scalar GeoRoutingNetwork50.node16.nic.mac 	meanBackoff 	0.00176
scalar GeoRoutingNetwork50.node16.nic.mac 	nbBackoffs 	10
scalar GeoRoutingNetwork50.node16.nic.mac 	backoffDurations 	0.0176
scalar GeoRoutingNetwork50.node16.nic.phy 	nbFramesWithInterference 	1
scalar GeoRoutingNetwork50.node16.nic.phy 	nbFramesWithoutInterference 	14
scalar GeoRoutingNetwork50.node16.nic.phy 	nbFramesWithInterferencePartial 	0
scalar GeoRoutingNetwork50.node16.nic.phy 	nbFramesWithoutInterferencePartial 	0
scalar GeoRoutingNetwork50.node16.nic.phy 	nbFramesWithInterferenceDropped 	0
scalar GeoRoutingNetwork50.node16.nic.phy 	nbFramesWithoutInterferenceDropped 	0
scalar GeoRoutingNetwork50.node16.netwl 	"Remaining Power" 	17.92194176
scalar GeoRoutingNetwork50.node16.tranl 	nbAggrPktReceived 	0
scalar GeoRoutingNetwork50.node16.tranl 	"nbAggrPktSentDown " 	0
scalar GeoRoutingNetwork50.node16.appl 	"activity duration" 	-1
attr unit  s
scalar GeoRoutingNetwork50.node16.appl 	firstPacketGeneration 	-1
attr unit  s
scalar GeoRoutingNetwork50.node16.appl 	lastPacketReception 	-2
attr unit  s
scalar GeoRoutingNetwork50.node16.appl 	nbPacketsSent 	0
scalar GeoRoutingNetwork50.node16.appl 	nbPacketsReceived 	0
statistic GeoRoutingNetwork50.node16.appl 	latency
field count 0
field mean nan
field stddev nan
field sum 0
field sqrsum 0
field min nan
field max nan
scalar GeoRoutingNetwork50.node16.batteryStats 	nominal 	18
attr unit  mW-s
scalar GeoRoutingNetwork50.node16.batteryStats 	total 	0.080080723250425
attr unit  mW-s
scalar GeoRoutingNetwork50.node16.batteryStats 	lifetime 	-1
attr unit  s
scalar GeoRoutingNetwork50.node16.batteryStats 	"Mean power consumption" 	1.8680861595065
attr unit  mW
scalar GeoRoutingNetwork50.node17.nic.mac 	nbTxFrames 	6
scalar GeoRoutingNetwork50.node17.nic.mac 	nbRxFrames 	3
scalar GeoRoutingNetwork50.node17.nic.mac 	nbDroppedFrames 	0
scalar GeoRoutingNetwork50.node17.nic.mac 	nbMissedAcks 	0
scalar GeoRoutingNetwork50.node17.nic.mac 	nbRecvdAcks 	0
scalar GeoRoutingNetwork50.node17.nic.mac 	nbTxAcks 	0
scalar GeoRoutingNetwork50.node17.nic.mac 	nbDuplicates 	0
scalar GeoRoutingNetwork50.node17.nic.mac 	meanBackoff 	0.0017371428571429
scalar GeoRoutingNetwork50.node17.nic.mac 	nbBackoffs 	7
scalar GeoRoutingNetwork50.node17.nic.mac 	backoffDurations 	0.01216
scalar GeoRoutingNetwork50.node17.nic.phy 	nbFramesWithInterference 	3
scalar GeoRoutingNetwork50.node17.nic.phy 	nbFramesWithoutInterference 	11
scalar GeoRoutingNetwork50.node17.nic.phy 	nbFramesWithInterferencePartial 	0
scalar GeoRoutingNetwork50.node17.nic.phy 	nbFramesWithoutInterferencePartial 	0
scalar GeoRoutingNetwork50.node17.nic.phy 	nbFramesWithInterferenceDropped 	1
scalar GeoRoutingNetwork50.node17.nic.phy 	nbFramesWithoutInterferenceDropped 	0
scalar GeoRoutingNetwork50.node17.netwl 	"Remaining Power" 	17.94299776
scalar GeoRoutingNetwork50.node17.tranl 	nbAggrPktReceived 	0
scalar GeoRoutingNetwork50.node17.tranl 	"nbAggrPktSentDown " 	0
scalar GeoRoutingNetwork50.node17.appl 	"activity duration" 	-1
attr unit  s
scalar GeoRoutingNetwork50.node17.appl 	firstPacketGeneration 	-1
attr unit  s
scalar GeoRoutingNetwork50.node17.appl 	lastPacketReception 	-2
attr unit  s
scalar GeoRoutingNetwork50.node17.appl 	nbPacketsSent 	0
scalar GeoRoutingNetwork50.node17.appl 	nbPacketsReceived 	0
statistic GeoRoutingNetwork50.node17.appl 	latency
field count 0
field mean nan
field stddev nan
field sum 0
field sqrsum 0
field min nan
field max nan
scalar GeoRoutingNetwork50.node17.batteryStats 	nominal 	18
attr unit  mW-s
scalar GeoRoutingNetwork50.node17.batteryStats 	total 	0.080080723250429
attr unit  mW-s
scalar GeoRoutingNetwork50.node17.batteryStats 	lifetime 	-1
attr unit  s
scalar GeoRoutingNetwork50.node17.batteryStats 	"Mean power consumption" 	1.8680861595066
attr unit  mW
scalar GeoRoutingNetwork50.node18.nic.mac 	nbTxFrames 	6
scalar GeoRoutingNetwork50.node18.nic.mac 	nbRxFrames 	1
scalar GeoRoutingNetwork50.node18.nic.mac 	nbDroppedFrames 	0
scalar GeoRoutingNetwork50.node18.nic.mac 	nbMissedAcks 	0
scalar GeoRoutingNetwork50.node18.nic.mac 	nbRecvdAcks 	0
scalar GeoRoutingNetwork50.node18.nic.mac 	nbTxAcks 	0
scalar GeoRoutingNetwork50.node18.nic.mac 	nbDuplicates 	0
scalar GeoRoutingNetwork50.node18.nic.mac 	meanBackoff 	0.001344
scalar GeoRoutingNetwork50.node18.nic.mac 	nbBackoffs 	10
scalar GeoRoutingNetwork50.node18.nic.mac 	backoffDurations 	0.01344
scalar GeoRoutingNetwork50.node18.nic.phy 	nbFramesWithInterference 	0
scalar GeoRoutingNetwork50.node18.nic.phy 	nbFramesWithoutInterference 	13
scalar GeoRoutingNetwork50.node18.nic.phy 	nbFramesWithInterferencePartial 	0
scalar GeoRoutingNetwork50.node18.nic.phy 	nbFramesWithoutInterferencePartial 	0
scalar GeoRoutingNetwork50.node18.nic.phy 	nbFramesWithInterferenceDropped 	0
scalar GeoRoutingNetwork50.node18.nic.phy 	nbFramesWithoutInterferenceDropped 	0
scalar GeoRoutingNetwork50.node18.netwl 	"Remaining Power" 	17.92976256
scalar GeoRoutingNetwork50.node18.tranl 	nbAggrPktReceived 	0
scalar GeoRoutingNetwork50.node18.tranl 	"nbAggrPktSentDown " 	0
scalar GeoRoutingNetwork50.node18.appl 	"activity duration" 	-1
attr unit  s
scalar GeoRoutingNetwork50.node18.appl 	firstPacketGeneration 	-1
attr unit  s
scalar GeoRoutingNetwork50.node18.appl 	lastPacketReception 	-2
attr unit  s
scalar GeoRoutingNetwork50.node18.appl 	nbPacketsSent 	0
scalar GeoRoutingNetwork50.node18.appl 	nbPacketsReceived 	0
statistic GeoRoutingNetwork50.node18.appl 	latency
field count 0
field mean nan
field stddev nan
field sum 0
field sqrsum 0
field min nan
field max nan
scalar GeoRoutingNetwork50.node18.batteryStats 	nominal 	18
attr unit  mW-s
scalar GeoRoutingNetwork50.node18.batteryStats 	total 	0.080080723250429
attr unit  mW-s
scalar GeoRoutingNetwork50.node18.batteryStats 	lifetime 	-1
attr unit  s
scalar GeoRoutingNetwork50.node18.batteryStats 	"Mean power consumption" 	1.8680861595066
attr unit  mW
scalar GeoRoutingNetwork50.node19.nic.mac 	nbTxFrames 	6
scalar GeoRoutingNetwork50.node19.nic.mac 	nbRxFrames 	5
scalar GeoRoutingNetwork50.node19.nic.mac 	nbDroppedFrames 	0
scalar GeoRoutingNetwork50.node19.nic.mac 	nbMissedAcks 	0
scalar GeoRoutingNetwork50.node19.nic.mac 	nbRecvdAcks 	0
scalar GeoRoutingNetwork50.node19.nic.mac 	nbTxAcks 	0
scalar GeoRoutingNetwork50.node19.nic.mac 	nbDuplicates 	0
scalar GeoRoutingNetwork50.node19.nic.mac 	meanBackoff 	0.0013714285714286
scalar GeoRoutingNetwork50.node19.nic.mac 	nbBackoffs 	7
scalar GeoRoutingNetwork50.node19.nic.mac 	backoffDurations 	0.0096
scalar GeoRoutingNetwork50.node19.nic.phy 	nbFramesWithInterference 	1
scalar GeoRoutingNetwork50.node19.nic.phy 	nbFramesWithoutInterference 	12
scalar GeoRoutingNetwork50.node19.nic.phy 	nbFramesWithInterferencePartial 	0
scalar GeoRoutingNetwork50.node19.nic.phy 	nbFramesWithoutInterferencePartial 	0
scalar GeoRoutingNetwork50.node19.nic.phy 	nbFramesWithInterferenceDropped 	0
scalar GeoRoutingNetwork50.node19.nic.phy 	nbFramesWithoutInterferenceDropped 	0
scalar GeoRoutingNetwork50.node19.netwl 	"Remaining Power" 	17.94781056
scalar GeoRoutingNetwork50.node19.tranl 	nbAggrPktReceived 	0
scalar GeoRoutingNetwork50.node19.tranl 	"nbAggrPktSentDown " 	0
scalar GeoRoutingNetwork50.node19.appl 	"activity duration" 	-1
attr unit  s
scalar GeoRoutingNetwork50.node19.appl 	firstPacketGeneration 	-1
attr unit  s
scalar GeoRoutingNetwork50.node19.appl 	lastPacketReception 	-2
attr unit  s
scalar GeoRoutingNetwork50.node19.appl 	nbPacketsSent 	0
scalar GeoRoutingNetwork50.node19.appl 	nbPacketsReceived 	0
statistic GeoRoutingNetwork50.node19.appl 	latency
field count 0
field mean nan
field stddev nan
field sum 0
field sqrsum 0
field min nan
field max nan
scalar GeoRoutingNetwork50.node19.batteryStats 	nominal 	18
attr unit  mW-s
scalar GeoRoutingNetwork50.node19.batteryStats 	total 	0.080080723250433
attr unit  mW-s
scalar GeoRoutingNetwork50.node19.batteryStats 	lifetime 	-1
attr unit  s
scalar GeoRoutingNetwork50.node19.batteryStats 	"Mean power consumption" 	1.8680861595067
attr unit  mW
scalar GeoRoutingNetwork50.node20.nic.mac 	nbTxFrames 	6
scalar GeoRoutingNetwork50.node20.nic.mac 	nbRxFrames 	4
scalar GeoRoutingNetwork50.node20.nic.mac 	nbDroppedFrames 	0
scalar GeoRoutingNetwork50.node20.nic.mac 	nbMissedAcks 	0
scalar GeoRoutingNetwork50.node20.nic.mac 	nbRecvdAcks 	0
scalar GeoRoutingNetwork50.node20.nic.mac 	nbTxAcks 	0
scalar GeoRoutingNetwork50.node20.nic.mac 	nbDuplicates 	0
scalar GeoRoutingNetwork50.node20.nic.mac 	meanBackoff 	0.0010971428571429
scalar GeoRoutingNetwork50.node20.nic.mac 	nbBackoffs 	7
scalar GeoRoutingNetwork50.node20.nic.mac 	backoffDurations 	0.00768
scalar GeoRoutingNetwork50.node20.nic.phy 	nbFramesWithInterference 	0
scalar GeoRoutingNetwork50.node20.nic.phy 	nbFramesWithoutInterference 	9
scalar GeoRoutingNetwork50.node20.nic.phy 	nbFramesWithInterferencePartial 	0
scalar GeoRoutingNetwork50.node20.nic.phy 	nbFramesWithoutInterferencePartial 	0
scalar GeoRoutingNetwork50.node20.nic.phy 	nbFramesWithInterferenceDropped 	0
scalar GeoRoutingNetwork50.node20.nic.phy 	nbFramesWithoutInterferenceDropped 	0
scalar GeoRoutingNetwork50.node20.netwl 	"Remaining Power" 	17.95142016
scalar GeoRoutingNetwork50.node20.tranl 	nbAggrPktReceived 	0
scalar GeoRoutingNetwork50.node20.tranl 	"nbAggrPktSentDown " 	0
scalar GeoRoutingNetwork50.node20.appl 	"activity duration" 	-1
attr unit  s
scalar GeoRoutingNetwork50.node20.appl 	firstPacketGeneration 	-1
attr unit  s
scalar GeoRoutingNetwork50.node20.appl 	lastPacketReception 	-2
attr unit  s
scalar GeoRoutingNetwork50.node20.appl 	nbPacketsSent 	0
scalar GeoRoutingNetwork50.node20.appl 	nbPacketsReceived 	0
statistic GeoRoutingNetwork50.node20.appl 	latency
field count 0
field mean nan
field stddev nan
field sum 0
field sqrsum 0
field min nan
field max nan
scalar GeoRoutingNetwork50.node20.batteryStats 	nominal 	18
attr unit  mW-s
scalar GeoRoutingNetwork50.node20.batteryStats 	total 	0.080080723250425
attr unit  mW-s
scalar GeoRoutingNetwork50.node20.batteryStats 	lifetime 	-1
attr unit  s
scalar GeoRoutingNetwork50.node20.batteryStats 	"Mean power consumption" 	1.8680861595065
attr unit  mW
scalar GeoRoutingNetwork50.node21.nic.mac 	nbTxFrames 	6
scalar GeoRoutingNetwork50.node21.nic.mac 	nbRxFrames 	3
scalar GeoRoutingNetwork50.node21.nic.mac 	nbDroppedFrames 	0
scalar GeoRoutingNetwork50.node21.nic.mac 	nbMissedAcks 	0
scalar GeoRoutingNetwork50.node21.nic.mac 	nbRecvdAcks 	0
scalar GeoRoutingNetwork50.node21.nic.mac 	nbTxAcks 	0
scalar GeoRoutingNetwork50.node21.nic.mac 	nbDuplicates 	0
scalar GeoRoutingNetwork50.node21.nic.mac 	meanBackoff 	0.0011377777777778
scalar GeoRoutingNetwork50.node21.nic.mac 	nbBackoffs 	9
scalar GeoRoutingNetwork50.node21.nic.mac 	backoffDurations 	0.01024
scalar GeoRoutingNetwork50.node21.nic.phy 	nbFramesWithInterference 	1
scalar GeoRoutingNetwork50.node21.nic.phy 	nbFramesWithoutInterference 	12
scalar GeoRoutingNetwork50.node21.nic.phy 	nbFramesWithInterferencePartial 	0
scalar GeoRoutingNetwork50.node21.nic.phy 	nbFramesWithoutInterferencePartial 	0
scalar GeoRoutingNetwork50.node21.nic.phy 	nbFramesWithInterferenceDropped 	0
scalar GeoRoutingNetwork50.node21.nic.phy 	nbFramesWithoutInterferenceDropped 	0
scalar GeoRoutingNetwork50.node21.netwl 	"Remaining Power" 	17.93938816
scalar GeoRoutingNetwork50.node21.tranl 	nbAggrPktReceived 	0
scalar GeoRoutingNetwork50.node21.tranl 	"nbAggrPktSentDown " 	0
scalar GeoRoutingNetwork50.node21.appl 	"activity duration" 	-1
attr unit  s
scalar GeoRoutingNetwork50.node21.appl 	firstPacketGeneration 	-1
attr unit  s
scalar GeoRoutingNetwork50.node21.appl 	lastPacketReception 	-2
attr unit  s
scalar GeoRoutingNetwork50.node21.appl 	nbPacketsSent 	0
scalar GeoRoutingNetwork50.node21.appl 	nbPacketsReceived 	0
statistic GeoRoutingNetwork50.node21.appl 	latency
field count 0
field mean nan
field stddev nan
field sum 0
field sqrsum 0
field min nan
field max nan
scalar GeoRoutingNetwork50.node21.batteryStats 	nominal 	18
attr unit  mW-s
scalar GeoRoutingNetwork50.node21.batteryStats 	total 	0.080080723250433
attr unit  mW-s
scalar GeoRoutingNetwork50.node21.batteryStats 	lifetime 	-1
attr unit  s
scalar GeoRoutingNetwork50.node21.batteryStats 	"Mean power consumption" 	1.8680861595067
attr unit  mW
scalar GeoRoutingNetwork50.node22.nic.mac 	nbTxFrames 	6
scalar GeoRoutingNetwork50.node22.nic.mac 	nbRxFrames 	0
scalar GeoRoutingNetwork50.node22.nic.mac 	nbDroppedFrames 	0
scalar GeoRoutingNetwork50.node22.nic.mac 	nbMissedAcks 	0
scalar GeoRoutingNetwork50.node22.nic.mac 	nbRecvdAcks 	0
scalar GeoRoutingNetwork50.node22.nic.mac 	nbTxAcks 	0
scalar GeoRoutingNetwork50.node22.nic.mac 	nbDuplicates 	0
scalar GeoRoutingNetwork50.node22.nic.mac 	meanBackoff 	0.0021688888888889
scalar GeoRoutingNetwork50.node22.nic.mac 	nbBackoffs 	9
scalar GeoRoutingNetwork50.node22.nic.mac 	backoffDurations 	0.01952
scalar GeoRoutingNetwork50.node22.nic.phy 	nbFramesWithInterference 	5
scalar GeoRoutingNetwork50.node22.nic.phy 	nbFramesWithoutInterference 	11
scalar GeoRoutingNetwork50.node22.nic.phy 	nbFramesWithInterferencePartial 	1
scalar GeoRoutingNetwork50.node22.nic.phy 	nbFramesWithoutInterferencePartial 	0
scalar GeoRoutingNetwork50.node22.nic.phy 	nbFramesWithInterferenceDropped 	0
scalar GeoRoutingNetwork50.node22.nic.phy 	nbFramesWithoutInterferenceDropped 	0
scalar GeoRoutingNetwork50.node22.netwl 	"Remaining Power" 	17.92194176
scalar GeoRoutingNetwork50.node22.tranl 	nbAggrPktReceived 	0
scalar GeoRoutingNetwork50.node22.tranl 	"nbAggrPktSentDown " 	0
scalar GeoRoutingNetwork50.node22.appl 	"activity duration" 	-1
attr unit  s
scalar GeoRoutingNetwork50.node22.appl 	firstPacketGeneration 	-1
attr unit  s
scalar GeoRoutingNetwork50.node22.appl 	lastPacketReception 	-2
attr unit  s
scalar GeoRoutingNetwork50.node22.appl 	nbPacketsSent 	0
scalar GeoRoutingNetwork50.node22.appl 	nbPacketsReceived 	0
statistic GeoRoutingNetwork50.node22.appl 	latency
field count 0
field mean nan
field stddev nan
field sum 0
field sqrsum 0
field min nan
field max nan
scalar GeoRoutingNetwork50.node22.batteryStats 	nominal 	18
attr unit  mW-s
scalar GeoRoutingNetwork50.node22.batteryStats 	total 	0.080080723250422
attr unit  mW-s
scalar GeoRoutingNetwork50.node22.batteryStats 	lifetime 	-1
attr unit  s
scalar GeoRoutingNetwork50.node22.batteryStats 	"Mean power consumption" 	1.8680861595064
attr unit  mW
scalar GeoRoutingNetwork50.node23.nic.mac 	nbTxFrames 	4
scalar GeoRoutingNetwork50.node23.nic.mac 	nbRxFrames 	0
scalar GeoRoutingNetwork50.node23.nic.mac 	nbDroppedFrames 	0
scalar GeoRoutingNetwork50.node23.nic.mac 	nbMissedAcks 	0
scalar GeoRoutingNetwork50.node23.nic.mac 	nbRecvdAcks 	0
scalar GeoRoutingNetwork50.node23.nic.mac 	nbTxAcks 	0
scalar GeoRoutingNetwork50.node23.nic.mac 	nbDuplicates 	0
scalar GeoRoutingNetwork50.node23.nic.mac 	meanBackoff 	0.00256
scalar GeoRoutingNetwork50.node23.nic.mac 	nbBackoffs 	9
scalar GeoRoutingNetwork50.node23.nic.mac 	backoffDurations 	0.02304
scalar GeoRoutingNetwork50.node23.nic.phy 	nbFramesWithInterference 	5
scalar GeoRoutingNetwork50.node23.nic.phy 	nbFramesWithoutInterference 	11
scalar GeoRoutingNetwork50.node23.nic.phy 	nbFramesWithInterferencePartial 	0
scalar GeoRoutingNetwork50.node23.nic.phy 	nbFramesWithoutInterferencePartial 	0
scalar GeoRoutingNetwork50.node23.nic.phy 	nbFramesWithInterferenceDropped 	2
scalar GeoRoutingNetwork50.node23.nic.phy 	nbFramesWithoutInterferenceDropped 	0
scalar GeoRoutingNetwork50.node23.netwl 	"Remaining Power" 	17.92213248
scalar GeoRoutingNetwork50.node23.tranl 	nbAggrPktReceived 	0
scalar GeoRoutingNetwork50.node23.tranl 	"nbAggrPktSentDown " 	0
scalar GeoRoutingNetwork50.node23.appl 	"activity duration" 	-1
attr unit  s
scalar GeoRoutingNetwork50.node23.appl 	firstPacketGeneration 	-1
attr unit  s
scalar GeoRoutingNetwork50.node23.appl 	lastPacketReception 	-2
attr unit  s
scalar GeoRoutingNetwork50.node23.appl 	nbPacketsSent 	0
scalar GeoRoutingNetwork50.node23.appl 	nbPacketsReceived 	0
statistic GeoRoutingNetwork50.node23.appl 	latency
field count 0
field mean nan
field stddev nan
field sum 0
field sqrsum 0
field min nan
field max nan
scalar GeoRoutingNetwork50.node23.batteryStats 	nominal 	18
attr unit  mW-s
scalar GeoRoutingNetwork50.node23.batteryStats 	total 	0.080250963250435
attr unit  mW-s
scalar GeoRoutingNetwork50.node23.batteryStats 	lifetime 	-1
attr unit  s
scalar GeoRoutingNetwork50.node23.batteryStats 	"Mean power consumption" 	1.8720574396711
attr unit  mW
scalar GeoRoutingNetwork50.node24.nic.mac 	nbTxFrames 	6
scalar GeoRoutingNetwork50.node24.nic.mac 	nbRxFrames 	7
scalar GeoRoutingNetwork50.node24.nic.mac 	nbDroppedFrames 	0
scalar GeoRoutingNetwork50.node24.nic.mac 	nbMissedAcks 	0
scalar GeoRoutingNetwork50.node24.nic.mac 	nbRecvdAcks 	0
scalar GeoRoutingNetwork50.node24.nic.mac 	nbTxAcks 	0
scalar GeoRoutingNetwork50.node24.nic.mac 	nbDuplicates 	0
scalar GeoRoutingNetwork50.node24.nic.mac 	meanBackoff 	0.0010666666666667
scalar GeoRoutingNetwork50.node24.nic.mac 	nbBackoffs 	6
scalar GeoRoutingNetwork50.node24.nic.mac 	backoffDurations 	0.0064
scalar GeoRoutingNetwork50.node24.nic.phy 	nbFramesWithInterference 	0
scalar GeoRoutingNetwork50.node24.nic.phy 	nbFramesWithoutInterference 	8
scalar GeoRoutingNetwork50.node24.nic.phy 	nbFramesWithInterferencePartial 	0
scalar GeoRoutingNetwork50.node24.nic.phy 	nbFramesWithoutInterferencePartial 	0
scalar GeoRoutingNetwork50.node24.nic.phy 	nbFramesWithInterferenceDropped 	0
scalar GeoRoutingNetwork50.node24.nic.phy 	nbFramesWithoutInterferenceDropped 	0
scalar GeoRoutingNetwork50.node24.netwl 	"Remaining Power" 	17.95743616
scalar GeoRoutingNetwork50.node24.tranl 	nbAggrPktReceived 	0
scalar GeoRoutingNetwork50.node24.tranl 	"nbAggrPktSentDown " 	0
scalar GeoRoutingNetwork50.node24.appl 	"activity duration" 	-1
attr unit  s
scalar GeoRoutingNetwork50.node24.appl 	firstPacketGeneration 	-1
attr unit  s
scalar GeoRoutingNetwork50.node24.appl 	lastPacketReception 	-2
attr unit  s
scalar GeoRoutingNetwork50.node24.appl 	nbPacketsSent 	0
scalar GeoRoutingNetwork50.node24.appl 	nbPacketsReceived 	0
statistic GeoRoutingNetwork50.node24.appl 	latency
field count 0
field mean nan
field stddev nan
field sum 0
field sqrsum 0
field min nan
field max nan
scalar GeoRoutingNetwork50.node24.batteryStats 	nominal 	18
attr unit  mW-s
scalar GeoRoutingNetwork50.node24.batteryStats 	total 	0.080080723250429
attr unit  mW-s
scalar GeoRoutingNetwork50.node24.batteryStats 	lifetime 	-1
attr unit  s
scalar GeoRoutingNetwork50.node24.batteryStats 	"Mean power consumption" 	1.8680861595066
attr unit  mW
scalar GeoRoutingNetwork50.node25.nic.mac 	nbTxFrames 	6
scalar GeoRoutingNetwork50.node25.nic.mac 	nbRxFrames 	2
scalar GeoRoutingNetwork50.node25.nic.mac 	nbDroppedFrames 	0
scalar GeoRoutingNetwork50.node25.nic.mac 	nbMissedAcks 	0
scalar GeoRoutingNetwork50.node25.nic.mac 	nbRecvdAcks 	0
scalar GeoRoutingNetwork50.node25.nic.mac 	nbTxAcks 	0
scalar GeoRoutingNetwork50.node25.nic.mac 	nbDuplicates 	0
scalar GeoRoutingNetwork50.node25.nic.mac 	meanBackoff 	0.00208
scalar GeoRoutingNetwork50.node25.nic.mac 	nbBackoffs 	8
scalar GeoRoutingNetwork50.node25.nic.mac 	backoffDurations 	0.01664
scalar GeoRoutingNetwork50.node25.nic.phy 	nbFramesWithInterference 	2
scalar GeoRoutingNetwork50.node25.nic.phy 	nbFramesWithoutInterference 	13
scalar GeoRoutingNetwork50.node25.nic.phy 	nbFramesWithInterferencePartial 	0
scalar GeoRoutingNetwork50.node25.nic.phy 	nbFramesWithoutInterferencePartial 	0
scalar GeoRoutingNetwork50.node25.nic.phy 	nbFramesWithInterferenceDropped 	0
scalar GeoRoutingNetwork50.node25.nic.phy 	nbFramesWithoutInterferenceDropped 	0
scalar GeoRoutingNetwork50.node25.netwl 	"Remaining Power" 	17.93096576
scalar GeoRoutingNetwork50.node25.tranl 	nbAggrPktReceived 	0
scalar GeoRoutingNetwork50.node25.tranl 	"nbAggrPktSentDown " 	0
scalar GeoRoutingNetwork50.node25.appl 	"activity duration" 	-1
attr unit  s
scalar GeoRoutingNetwork50.node25.appl 	firstPacketGeneration 	-1
attr unit  s
scalar GeoRoutingNetwork50.node25.appl 	lastPacketReception 	-2
attr unit  s
scalar GeoRoutingNetwork50.node25.appl 	nbPacketsSent 	0
scalar GeoRoutingNetwork50.node25.appl 	nbPacketsReceived 	0
statistic GeoRoutingNetwork50.node25.appl 	latency
field count 0
field mean nan
field stddev nan
field sum 0
field sqrsum 0
field min nan
field max nan
scalar GeoRoutingNetwork50.node25.batteryStats 	nominal 	18
attr unit  mW-s
scalar GeoRoutingNetwork50.node25.batteryStats 	total 	0.080080723250425
attr unit  mW-s
scalar GeoRoutingNetwork50.node25.batteryStats 	lifetime 	-1
attr unit  s
scalar GeoRoutingNetwork50.node25.batteryStats 	"Mean power consumption" 	1.8680861595065
attr unit  mW
scalar GeoRoutingNetwork50.node26.nic.mac 	nbTxFrames 	7
scalar GeoRoutingNetwork50.node26.nic.mac 	nbRxFrames 	5
scalar GeoRoutingNetwork50.node26.nic.mac 	nbDroppedFrames 	0
scalar GeoRoutingNetwork50.node26.nic.mac 	nbMissedAcks 	0
scalar GeoRoutingNetwork50.node26.nic.mac 	nbRecvdAcks 	0
scalar GeoRoutingNetwork50.node26.nic.mac 	nbTxAcks 	0
scalar GeoRoutingNetwork50.node26.nic.mac 	nbDuplicates 	0
scalar GeoRoutingNetwork50.node26.nic.mac 	meanBackoff 	0.00108
scalar GeoRoutingNetwork50.node26.nic.mac 	nbBackoffs 	8
scalar GeoRoutingNetwork50.node26.nic.mac 	backoffDurations 	0.00864
scalar GeoRoutingNetwork50.node26.nic.phy 	nbFramesWithInterference 	3
scalar GeoRoutingNetwork50.node26.nic.phy 	nbFramesWithoutInterference 	9
scalar GeoRoutingNetwork50.node26.nic.phy 	nbFramesWithInterferencePartial 	0
scalar GeoRoutingNetwork50.node26.nic.phy 	nbFramesWithoutInterferencePartial 	0
scalar GeoRoutingNetwork50.node26.nic.phy 	nbFramesWithInterferenceDropped 	0
scalar GeoRoutingNetwork50.node26.nic.phy 	nbFramesWithoutInterferenceDropped 	0
scalar GeoRoutingNetwork50.node26.netwl 	"Remaining Power" 	17.92000439675
scalar GeoRoutingNetwork50.node26.tranl 	nbAggrPktReceived 	0
scalar GeoRoutingNetwork50.node26.tranl 	"nbAggrPktSentDown " 	0
scalar GeoRoutingNetwork50.node26.appl 	"activity duration" 	-1
attr unit  s
scalar GeoRoutingNetwork50.node26.appl 	firstPacketGeneration 	-1
attr unit  s
scalar GeoRoutingNetwork50.node26.appl 	lastPacketReception 	-2
attr unit  s
scalar GeoRoutingNetwork50.node26.appl 	nbPacketsSent 	1
scalar GeoRoutingNetwork50.node26.appl 	nbPacketsReceived 	0
statistic GeoRoutingNetwork50.node26.appl 	latency
field count 0
field mean nan
field stddev nan
field sum 0
field sqrsum 0
field min nan
field max nan
scalar GeoRoutingNetwork50.node26.batteryStats 	nominal 	18
attr unit  mW-s
scalar GeoRoutingNetwork50.node26.batteryStats 	total 	0.079995603250428
attr unit  mW-s
scalar GeoRoutingNetwork50.node26.batteryStats 	lifetime 	-1
attr unit  s
scalar GeoRoutingNetwork50.node26.batteryStats 	"Mean power consumption" 	1.8661005194243
attr unit  mW
scalar GeoRoutingNetwork50.node27.nic.mac 	nbTxFrames 	6
scalar GeoRoutingNetwork50.node27.nic.mac 	nbRxFrames 	3
scalar GeoRoutingNetwork50.node27.nic.mac 	nbDroppedFrames 	0
scalar GeoRoutingNetwork50.node27.nic.mac 	nbMissedAcks 	0
scalar GeoRoutingNetwork50.node27.nic.mac 	nbRecvdAcks 	0
scalar GeoRoutingNetwork50.node27.nic.mac 	nbTxAcks 	0
scalar GeoRoutingNetwork50.node27.nic.mac 	nbDuplicates 	0
scalar GeoRoutingNetwork50.node27.nic.mac 	meanBackoff 	0.00168
scalar GeoRoutingNetwork50.node27.nic.mac 	nbBackoffs 	8
scalar GeoRoutingNetwork50.node27.nic.mac 	backoffDurations 	0.01344
scalar GeoRoutingNetwork50.node27.nic.phy 	nbFramesWithInterference 	3
scalar GeoRoutingNetwork50.node27.nic.phy 	nbFramesWithoutInterference 	10
scalar GeoRoutingNetwork50.node27.nic.phy 	nbFramesWithInterferencePartial 	0
scalar GeoRoutingNetwork50.node27.nic.phy 	nbFramesWithoutInterferencePartial 	0
scalar GeoRoutingNetwork50.node27.nic.phy 	nbFramesWithInterferenceDropped 	0
scalar GeoRoutingNetwork50.node27.nic.phy 	nbFramesWithoutInterferenceDropped 	0
scalar GeoRoutingNetwork50.node27.netwl 	"Remaining Power" 	17.93698176
scalar GeoRoutingNetwork50.node27.tranl 	nbAggrPktReceived 	0
scalar GeoRoutingNetwork50.node27.tranl 	"nbAggrPktSentDown " 	0
scalar GeoRoutingNetwork50.node27.appl 	"activity duration" 	-1
attr unit  s
scalar GeoRoutingNetwork50.node27.appl 	firstPacketGeneration 	-1
attr unit  s
scalar GeoRoutingNetwork50.node27.appl 	lastPacketReception 	-2
attr unit  s
scalar GeoRoutingNetwork50.node27.appl 	nbPacketsSent 	0
scalar GeoRoutingNetwork50.node27.appl 	nbPacketsReceived 	0
statistic GeoRoutingNetwork50.node27.appl 	latency
field count 0
field mean nan
field stddev nan
field sum 0
field sqrsum 0
field min nan
field max nan
scalar GeoRoutingNetwork50.node27.batteryStats 	nominal 	18
attr unit  mW-s
scalar GeoRoutingNetwork50.node27.batteryStats 	total 	0.080080723250433
attr unit  mW-s
scalar GeoRoutingNetwork50.node27.batteryStats 	lifetime 	-1
attr unit  s
scalar GeoRoutingNetwork50.node27.batteryStats 	"Mean power consumption" 	1.8680861595067
attr unit  mW
scalar GeoRoutingNetwork50.node28.nic.mac 	nbTxFrames 	6
scalar GeoRoutingNetwork50.node28.nic.mac 	nbRxFrames 	4
scalar GeoRoutingNetwork50.node28.nic.mac 	nbDroppedFrames 	0
scalar GeoRoutingNetwork50.node28.nic.mac 	nbMissedAcks 	0
scalar GeoRoutingNetwork50.node28.nic.mac 	nbRecvdAcks 	0
scalar GeoRoutingNetwork50.node28.nic.mac 	nbTxAcks 	0
scalar GeoRoutingNetwork50.node28.nic.mac 	nbDuplicates 	0
scalar GeoRoutingNetwork50.node28.nic.mac 	meanBackoff 	0.0014628571428571
scalar GeoRoutingNetwork50.node28.nic.mac 	nbBackoffs 	7
scalar GeoRoutingNetwork50.node28.nic.mac 	backoffDurations 	0.01024
scalar GeoRoutingNetwork50.node28.nic.phy 	nbFramesWithInterference 	2
scalar GeoRoutingNetwork50.node28.nic.phy 	nbFramesWithoutInterference 	14
scalar GeoRoutingNetwork50.node28.nic.phy 	nbFramesWithInterferencePartial 	0
scalar GeoRoutingNetwork50.node28.nic.phy 	nbFramesWithoutInterferencePartial 	0
scalar GeoRoutingNetwork50.node28.nic.phy 	nbFramesWithInterferenceDropped 	1
scalar GeoRoutingNetwork50.node28.nic.phy 	nbFramesWithoutInterferenceDropped 	0
scalar GeoRoutingNetwork50.node28.netwl 	"Remaining Power" 	17.94660736
scalar GeoRoutingNetwork50.node28.tranl 	nbAggrPktReceived 	0
scalar GeoRoutingNetwork50.node28.tranl 	"nbAggrPktSentDown " 	0
scalar GeoRoutingNetwork50.node28.appl 	"activity duration" 	-1
attr unit  s
scalar GeoRoutingNetwork50.node28.appl 	firstPacketGeneration 	-1
attr unit  s
scalar GeoRoutingNetwork50.node28.appl 	lastPacketReception 	-2
attr unit  s
scalar GeoRoutingNetwork50.node28.appl 	nbPacketsSent 	0
scalar GeoRoutingNetwork50.node28.appl 	nbPacketsReceived 	0
statistic GeoRoutingNetwork50.node28.appl 	latency
field count 0
field mean nan
field stddev nan
field sum 0
field sqrsum 0
field min nan
field max nan
scalar GeoRoutingNetwork50.node28.batteryStats 	nominal 	18
attr unit  mW-s
scalar GeoRoutingNetwork50.node28.batteryStats 	total 	0.080080723250429
attr unit  mW-s
scalar GeoRoutingNetwork50.node28.batteryStats 	lifetime 	-1
attr unit  s
scalar GeoRoutingNetwork50.node28.batteryStats 	"Mean power consumption" 	1.8680861595066
attr unit  mW
scalar GeoRoutingNetwork50.node29.nic.mac 	nbTxFrames 	5
scalar GeoRoutingNetwork50.node29.nic.mac 	nbRxFrames 	0
scalar GeoRoutingNetwork50.node29.nic.mac 	nbDroppedFrames 	0
scalar GeoRoutingNetwork50.node29.nic.mac 	nbMissedAcks 	0
scalar GeoRoutingNetwork50.node29.nic.mac 	nbRecvdAcks 	0
scalar GeoRoutingNetwork50.node29.nic.mac 	nbTxAcks 	0
scalar GeoRoutingNetwork50.node29.nic.mac 	nbDuplicates 	0
scalar GeoRoutingNetwork50.node29.nic.mac 	meanBackoff 	0.0016872727272727
scalar GeoRoutingNetwork50.node29.nic.mac 	nbBackoffs 	11
scalar GeoRoutingNetwork50.node29.nic.mac 	backoffDurations 	0.01856
scalar GeoRoutingNetwork50.node29.nic.phy 	nbFramesWithInterference 	2
scalar GeoRoutingNetwork50.node29.nic.phy 	nbFramesWithoutInterference 	13
scalar GeoRoutingNetwork50.node29.nic.phy 	nbFramesWithInterferencePartial 	0
scalar GeoRoutingNetwork50.node29.nic.phy 	nbFramesWithoutInterferencePartial 	0
scalar GeoRoutingNetwork50.node29.nic.phy 	nbFramesWithInterferenceDropped 	1
scalar GeoRoutingNetwork50.node29.nic.phy 	nbFramesWithoutInterferenceDropped 	0
scalar GeoRoutingNetwork50.node29.netwl 	"Remaining Power" 	17.9219168
scalar GeoRoutingNetwork50.node29.tranl 	nbAggrPktReceived 	0
scalar GeoRoutingNetwork50.node29.tranl 	"nbAggrPktSentDown " 	0
scalar GeoRoutingNetwork50.node29.appl 	"activity duration" 	-1
attr unit  s
scalar GeoRoutingNetwork50.node29.appl 	firstPacketGeneration 	-1
attr unit  s
scalar GeoRoutingNetwork50.node29.appl 	lastPacketReception 	-2
attr unit  s
scalar GeoRoutingNetwork50.node29.appl 	nbPacketsSent 	0
scalar GeoRoutingNetwork50.node29.appl 	nbPacketsReceived 	0
statistic GeoRoutingNetwork50.node29.appl 	latency
field count 0
field mean nan
field stddev nan
field sum 0
field sqrsum 0
field min nan
field max nan
scalar GeoRoutingNetwork50.node29.batteryStats 	nominal 	18
attr unit  mW-s
scalar GeoRoutingNetwork50.node29.batteryStats 	total 	0.08016584325043
attr unit  mW-s
scalar GeoRoutingNetwork50.node29.batteryStats 	lifetime 	-1
attr unit  s
scalar GeoRoutingNetwork50.node29.batteryStats 	"Mean power consumption" 	1.8700717995888
attr unit  mW
scalar GeoRoutingNetwork50.node30.nic.mac 	nbTxFrames 	2
scalar GeoRoutingNetwork50.node30.nic.mac 	nbRxFrames 	0
scalar GeoRoutingNetwork50.node30.nic.mac 	nbDroppedFrames 	0
scalar GeoRoutingNetwork50.node30.nic.mac 	nbMissedAcks 	0
scalar GeoRoutingNetwork50.node30.nic.mac 	nbRecvdAcks 	0
scalar GeoRoutingNetwork50.node30.nic.mac 	nbTxAcks 	0
scalar GeoRoutingNetwork50.node30.nic.mac 	nbDuplicates 	0
scalar GeoRoutingNetwork50.node30.nic.mac 	meanBackoff 	0.0040228571428571
scalar GeoRoutingNetwork50.node30.nic.mac 	nbBackoffs 	7
scalar GeoRoutingNetwork50.node30.nic.mac 	backoffDurations 	0.02816
scalar GeoRoutingNetwork50.node30.nic.phy 	nbFramesWithInterference 	1
scalar GeoRoutingNetwork50.node30.nic.phy 	nbFramesWithoutInterference 	10
scalar GeoRoutingNetwork50.node30.nic.phy 	nbFramesWithInterferencePartial 	0
scalar GeoRoutingNetwork50.node30.nic.phy 	nbFramesWithoutInterferencePartial 	0
scalar GeoRoutingNetwork50.node30.nic.phy 	nbFramesWithInterferenceDropped 	0
scalar GeoRoutingNetwork50.node30.nic.phy 	nbFramesWithoutInterferenceDropped 	0
scalar GeoRoutingNetwork50.node30.netwl 	"Remaining Power" 	17.92256384
scalar GeoRoutingNetwork50.node30.tranl 	nbAggrPktReceived 	0
scalar GeoRoutingNetwork50.node30.tranl 	"nbAggrPktSentDown " 	0
scalar GeoRoutingNetwork50.node30.appl 	"activity duration" 	-1
attr unit  s
scalar GeoRoutingNetwork50.node30.appl 	firstPacketGeneration 	-1
attr unit  s
scalar GeoRoutingNetwork50.node30.appl 	lastPacketReception 	-2
attr unit  s
scalar GeoRoutingNetwork50.node30.appl 	nbPacketsSent 	0
scalar GeoRoutingNetwork50.node30.appl 	nbPacketsReceived 	0
statistic GeoRoutingNetwork50.node30.appl 	latency
field count 0
field mean nan
field stddev nan
field sum 0
field sqrsum 0
field min nan
field max nan
scalar GeoRoutingNetwork50.node30.batteryStats 	nominal 	18
attr unit  mW-s
scalar GeoRoutingNetwork50.node30.batteryStats 	total 	0.080421203250435
attr unit  mW-s
scalar GeoRoutingNetwork50.node30.batteryStats 	lifetime 	-1
attr unit  s
scalar GeoRoutingNetwork50.node30.batteryStats 	"Mean power consumption" 	1.8760287198355
attr unit  mW
scalar GeoRoutingNetwork50.node31.nic.mac 	nbTxFrames 	6
scalar GeoRoutingNetwork50.node31.nic.mac 	nbRxFrames 	0
scalar GeoRoutingNetwork50.node31.nic.mac 	nbDroppedFrames 	0
scalar GeoRoutingNetwork50.node31.nic.mac 	nbMissedAcks 	0
scalar GeoRoutingNetwork50.node31.nic.mac 	nbRecvdAcks 	0
scalar GeoRoutingNetwork50.node31.nic.mac 	nbTxAcks 	0
scalar GeoRoutingNetwork50.node31.nic.mac 	nbDuplicates 	0
scalar GeoRoutingNetwork50.node31.nic.mac 	meanBackoff 	0.0013963636363636
scalar GeoRoutingNetwork50.node31.nic.mac 	nbBackoffs 	11
scalar GeoRoutingNetwork50.node31.nic.mac 	backoffDurations 	0.01536
scalar GeoRoutingNetwork50.node31.nic.phy 	nbFramesWithInterference 	4
scalar GeoRoutingNetwork50.node31.nic.phy 	nbFramesWithoutInterference 	15
scalar GeoRoutingNetwork50.node31.nic.phy 	nbFramesWithInterferencePartial 	0
scalar GeoRoutingNetwork50.node31.nic.phy 	nbFramesWithoutInterferencePartial 	0
scalar GeoRoutingNetwork50.node31.nic.phy 	nbFramesWithInterferenceDropped 	0
scalar GeoRoutingNetwork50.node31.nic.phy 	nbFramesWithoutInterferenceDropped 	0
scalar GeoRoutingNetwork50.node31.netwl 	"Remaining Power" 	17.92254336
scalar GeoRoutingNetwork50.node31.tranl 	nbAggrPktReceived 	0
scalar GeoRoutingNetwork50.node31.tranl 	"nbAggrPktSentDown " 	0
scalar GeoRoutingNetwork50.node31.appl 	"activity duration" 	-1
attr unit  s
scalar GeoRoutingNetwork50.node31.appl 	firstPacketGeneration 	-1
attr unit  s
scalar GeoRoutingNetwork50.node31.appl 	lastPacketReception 	-2
attr unit  s
scalar GeoRoutingNetwork50.node31.appl 	nbPacketsSent 	0
scalar GeoRoutingNetwork50.node31.appl 	nbPacketsReceived 	0
statistic GeoRoutingNetwork50.node31.appl 	latency
field count 0
field mean nan
field stddev nan
field sum 0
field sqrsum 0
field min nan
field max nan
scalar GeoRoutingNetwork50.node31.batteryStats 	nominal 	18
attr unit  mW-s
scalar GeoRoutingNetwork50.node31.batteryStats 	total 	0.080080723250425
attr unit  mW-s
scalar GeoRoutingNetwork50.node31.batteryStats 	lifetime 	-1
attr unit  s
scalar GeoRoutingNetwork50.node31.batteryStats 	"Mean power consumption" 	1.8680861595065
attr unit  mW
scalar GeoRoutingNetwork50.node32.nic.mac 	nbTxFrames 	6
scalar GeoRoutingNetwork50.node32.nic.mac 	nbRxFrames 	0
scalar GeoRoutingNetwork50.node32.nic.mac 	nbDroppedFrames 	0
scalar GeoRoutingNetwork50.node32.nic.mac 	nbMissedAcks 	0
scalar GeoRoutingNetwork50.node32.nic.mac 	nbRecvdAcks 	0
scalar GeoRoutingNetwork50.node32.nic.mac 	nbTxAcks 	0
scalar GeoRoutingNetwork50.node32.nic.mac 	nbDuplicates 	0
scalar GeoRoutingNetwork50.node32.nic.mac 	meanBackoff 	0.001856
scalar GeoRoutingNetwork50.node32.nic.mac 	nbBackoffs 	10
scalar GeoRoutingNetwork50.node32.nic.mac 	backoffDurations 	0.01856
scalar GeoRoutingNetwork50.node32.nic.phy 	nbFramesWithInterference 	0
scalar GeoRoutingNetwork50.node32.nic.phy 	nbFramesWithoutInterference 	8
scalar GeoRoutingNetwork50.node32.nic.phy 	nbFramesWithInterferencePartial 	0
scalar GeoRoutingNetwork50.node32.nic.phy 	nbFramesWithoutInterferencePartial 	0
scalar GeoRoutingNetwork50.node32.nic.phy 	nbFramesWithInterferenceDropped 	1
scalar GeoRoutingNetwork50.node32.nic.phy 	nbFramesWithoutInterferenceDropped 	0
scalar GeoRoutingNetwork50.node32.netwl 	"Remaining Power" 	17.92013696
scalar GeoRoutingNetwork50.node32.tranl 	nbAggrPktReceived 	0
scalar GeoRoutingNetwork50.node32.tranl 	"nbAggrPktSentDown " 	0
scalar GeoRoutingNetwork50.node32.appl 	"activity duration" 	-1
attr unit  s
scalar GeoRoutingNetwork50.node32.appl 	firstPacketGeneration 	-1
attr unit  s
scalar GeoRoutingNetwork50.node32.appl 	lastPacketReception 	-2
attr unit  s
scalar GeoRoutingNetwork50.node32.appl 	nbPacketsSent 	0
scalar GeoRoutingNetwork50.node32.appl 	nbPacketsReceived 	0
statistic GeoRoutingNetwork50.node32.appl 	latency
field count 0
field mean nan
field stddev nan
field sum 0
field sqrsum 0
field min nan
field max nan
scalar GeoRoutingNetwork50.node32.batteryStats 	nominal 	18
attr unit  mW-s
scalar GeoRoutingNetwork50.node32.batteryStats 	total 	0.080080723250433
attr unit  mW-s
scalar GeoRoutingNetwork50.node32.batteryStats 	lifetime 	-1
attr unit  s
scalar GeoRoutingNetwork50.node32.batteryStats 	"Mean power consumption" 	1.8680861595067
attr unit  mW
scalar GeoRoutingNetwork50.node33.nic.mac 	nbTxFrames 	6
scalar GeoRoutingNetwork50.node33.nic.mac 	nbRxFrames 	0
scalar GeoRoutingNetwork50.node33.nic.mac 	nbDroppedFrames 	0
scalar GeoRoutingNetwork50.node33.nic.mac 	nbMissedAcks 	0
scalar GeoRoutingNetwork50.node33.nic.mac 	nbRecvdAcks 	0
scalar GeoRoutingNetwork50.node33.nic.mac 	nbTxAcks 	0
scalar GeoRoutingNetwork50.node33.nic.mac 	nbDuplicates 	0
scalar GeoRoutingNetwork50.node33.nic.mac 	meanBackoff 	0.001952
scalar GeoRoutingNetwork50.node33.nic.mac 	nbBackoffs 	10
scalar GeoRoutingNetwork50.node33.nic.mac 	backoffDurations 	0.01952
scalar GeoRoutingNetwork50.node33.nic.phy 	nbFramesWithInterference 	4
scalar GeoRoutingNetwork50.node33.nic.phy 	nbFramesWithoutInterference 	13
scalar GeoRoutingNetwork50.node33.nic.phy 	nbFramesWithInterferencePartial 	0
scalar GeoRoutingNetwork50.node33.nic.phy 	nbFramesWithoutInterferencePartial 	0
scalar GeoRoutingNetwork50.node33.nic.phy 	nbFramesWithInterferenceDropped 	1
scalar GeoRoutingNetwork50.node33.nic.phy 	nbFramesWithoutInterferenceDropped 	0
scalar GeoRoutingNetwork50.node33.netwl 	"Remaining Power" 	17.920112
scalar GeoRoutingNetwork50.node33.tranl 	nbAggrPktReceived 	0
scalar GeoRoutingNetwork50.node33.tranl 	"nbAggrPktSentDown " 	0
scalar GeoRoutingNetwork50.node33.appl 	"activity duration" 	-1
attr unit  s
scalar GeoRoutingNetwork50.node33.appl 	firstPacketGeneration 	-1
attr unit  s
scalar GeoRoutingNetwork50.node33.appl 	lastPacketReception 	-2
attr unit  s
scalar GeoRoutingNetwork50.node33.appl 	nbPacketsSent 	0
scalar GeoRoutingNetwork50.node33.appl 	nbPacketsReceived 	0
statistic GeoRoutingNetwork50.node33.appl 	latency
field count 0
field mean nan
field stddev nan
field sum 0
field sqrsum 0
field min nan
field max nan
scalar GeoRoutingNetwork50.node33.batteryStats 	nominal 	18
attr unit  mW-s
scalar GeoRoutingNetwork50.node33.batteryStats 	total 	0.080165843250434
attr unit  mW-s
scalar GeoRoutingNetwork50.node33.batteryStats 	lifetime 	-1
attr unit  s
scalar GeoRoutingNetwork50.node33.batteryStats 	"Mean power consumption" 	1.8700717995889
attr unit  mW
scalar GeoRoutingNetwork50.node34.nic.mac 	nbTxFrames 	6
scalar GeoRoutingNetwork50.node34.nic.mac 	nbRxFrames 	4
scalar GeoRoutingNetwork50.node34.nic.mac 	nbDroppedFrames 	0
scalar GeoRoutingNetwork50.node34.nic.mac 	nbMissedAcks 	0
scalar GeoRoutingNetwork50.node34.nic.mac 	nbRecvdAcks 	0
scalar GeoRoutingNetwork50.node34.nic.mac 	nbTxAcks 	0
scalar GeoRoutingNetwork50.node34.nic.mac 	nbDuplicates 	0
scalar GeoRoutingNetwork50.node34.nic.mac 	meanBackoff 	0.0013155555555556
scalar GeoRoutingNetwork50.node34.nic.mac 	nbBackoffs 	9
scalar GeoRoutingNetwork50.node34.nic.mac 	backoffDurations 	0.01184
scalar GeoRoutingNetwork50.node34.nic.phy 	nbFramesWithInterference 	1
scalar GeoRoutingNetwork50.node34.nic.phy 	nbFramesWithoutInterference 	14
scalar GeoRoutingNetwork50.node34.nic.phy 	nbFramesWithInterferencePartial 	0
scalar GeoRoutingNetwork50.node34.nic.phy 	nbFramesWithoutInterferencePartial 	0
scalar GeoRoutingNetwork50.node34.nic.phy 	nbFramesWithInterferenceDropped 	1
scalar GeoRoutingNetwork50.node34.nic.phy 	nbFramesWithoutInterferenceDropped 	0
scalar GeoRoutingNetwork50.node34.netwl 	"Remaining Power" 	17.93638016
scalar GeoRoutingNetwork50.node34.tranl 	nbAggrPktReceived 	0
scalar GeoRoutingNetwork50.node34.tranl 	"nbAggrPktSentDown " 	0
scalar GeoRoutingNetwork50.node34.appl 	"activity duration" 	-1
attr unit  s
scalar GeoRoutingNetwork50.node34.appl 	firstPacketGeneration 	-1
attr unit  s
scalar GeoRoutingNetwork50.node34.appl 	lastPacketReception 	-2
attr unit  s
scalar GeoRoutingNetwork50.node34.appl 	nbPacketsSent 	0
scalar GeoRoutingNetwork50.node34.appl 	nbPacketsReceived 	0
statistic GeoRoutingNetwork50.node34.appl 	latency
field count 0
field mean nan
field stddev nan
field sum 0
field sqrsum 0
field min nan
field max nan
scalar GeoRoutingNetwork50.node34.batteryStats 	nominal 	18
attr unit  mW-s
scalar GeoRoutingNetwork50.node34.batteryStats 	total 	0.080080723250425
attr unit  mW-s
scalar GeoRoutingNetwork50.node34.batteryStats 	lifetime 	-1
attr unit  s
scalar GeoRoutingNetwork50.node34.batteryStats 	"Mean power consumption" 	1.8680861595065
attr unit  mW
scalar GeoRoutingNetwork50.node35.nic.mac 	nbTxFrames 	6
scalar GeoRoutingNetwork50.node35.nic.mac 	nbRxFrames 	6
scalar GeoRoutingNetwork50.node35.nic.mac 	nbDroppedFrames 	0
scalar GeoRoutingNetwork50.node35.nic.mac 	nbMissedAcks 	0
scalar GeoRoutingNetwork50.node35.nic.mac 	nbRecvdAcks 	0
scalar GeoRoutingNetwork50.node35.nic.mac 	nbTxAcks 	0
scalar GeoRoutingNetwork50.node35.nic.mac 	nbDuplicates 	0
scalar GeoRoutingNetwork50.node35.nic.mac 	meanBackoff 	0.00112
scalar GeoRoutingNetwork50.node35.nic.mac 	nbBackoffs 	8
scalar GeoRoutingNetwork50.node35.nic.mac 	backoffDurations 	0.00896
scalar GeoRoutingNetwork50.node35.nic.phy 	nbFramesWithInterference 	4
scalar GeoRoutingNetwork50.node35.nic.phy 	nbFramesWithoutInterference 	12
scalar GeoRoutingNetwork50.node35.nic.phy 	nbFramesWithInterferencePartial 	0
scalar GeoRoutingNetwork50.node35.nic.phy 	nbFramesWithoutInterferencePartial 	0
scalar GeoRoutingNetwork50.node35.nic.phy 	nbFramesWithInterferenceDropped 	0
scalar GeoRoutingNetwork50.node35.nic.phy 	nbFramesWithoutInterferenceDropped 	0
scalar GeoRoutingNetwork50.node35.netwl 	"Remaining Power" 	17.94540416
scalar GeoRoutingNetwork50.node35.tranl 	nbAggrPktReceived 	0
scalar GeoRoutingNetwork50.node35.tranl 	"nbAggrPktSentDown " 	0
scalar GeoRoutingNetwork50.node35.appl 	"activity duration" 	-1
attr unit  s
scalar GeoRoutingNetwork50.node35.appl 	firstPacketGeneration 	-1
attr unit  s
scalar GeoRoutingNetwork50.node35.appl 	lastPacketReception 	-2
attr unit  s
scalar GeoRoutingNetwork50.node35.appl 	nbPacketsSent 	0
scalar GeoRoutingNetwork50.node35.appl 	nbPacketsReceived 	0
statistic GeoRoutingNetwork50.node35.appl 	latency
field count 0
field mean nan
field stddev nan
field sum 0
field sqrsum 0
field min nan
field max nan
scalar GeoRoutingNetwork50.node35.batteryStats 	nominal 	18
attr unit  mW-s
scalar GeoRoutingNetwork50.node35.batteryStats 	total 	0.080080723250425
attr unit  mW-s
scalar GeoRoutingNetwork50.node35.batteryStats 	lifetime 	-1
attr unit  s
scalar GeoRoutingNetwork50.node35.batteryStats 	"Mean power consumption" 	1.8680861595065
attr unit  mW
scalar GeoRoutingNetwork50.node36.nic.mac 	nbTxFrames 	6
scalar GeoRoutingNetwork50.node36.nic.mac 	nbRxFrames 	6
scalar GeoRoutingNetwork50.node36.nic.mac 	nbDroppedFrames 	0
scalar GeoRoutingNetwork50.node36.nic.mac 	nbMissedAcks 	0
scalar GeoRoutingNetwork50.node36.nic.mac 	nbRecvdAcks 	0
scalar GeoRoutingNetwork50.node36.nic.mac 	nbTxAcks 	0
scalar GeoRoutingNetwork50.node36.nic.mac 	nbDuplicates 	0
scalar GeoRoutingNetwork50.node36.nic.mac 	meanBackoff 	0.0010514285714286
scalar GeoRoutingNetwork50.node36.nic.mac 	nbBackoffs 	7
scalar GeoRoutingNetwork50.node36.nic.mac 	backoffDurations 	0.00736
scalar GeoRoutingNetwork50.node36.nic.phy 	nbFramesWithInterference 	2
scalar GeoRoutingNetwork50.node36.nic.phy 	nbFramesWithoutInterference 	10
scalar GeoRoutingNetwork50.node36.nic.phy 	nbFramesWithInterferencePartial 	0
scalar GeoRoutingNetwork50.node36.nic.phy 	nbFramesWithoutInterferencePartial 	0
scalar GeoRoutingNetwork50.node36.nic.phy 	nbFramesWithInterferenceDropped 	0
scalar GeoRoutingNetwork50.node36.nic.phy 	nbFramesWithoutInterferenceDropped 	0
scalar GeoRoutingNetwork50.node36.netwl 	"Remaining Power" 	17.95202176
scalar GeoRoutingNetwork50.node36.tranl 	nbAggrPktReceived 	0
scalar GeoRoutingNetwork50.node36.tranl 	"nbAggrPktSentDown " 	0
scalar GeoRoutingNetwork50.node36.appl 	"activity duration" 	-1
attr unit  s
scalar GeoRoutingNetwork50.node36.appl 	firstPacketGeneration 	-1
attr unit  s
scalar GeoRoutingNetwork50.node36.appl 	lastPacketReception 	-2
attr unit  s
scalar GeoRoutingNetwork50.node36.appl 	nbPacketsSent 	0
scalar GeoRoutingNetwork50.node36.appl 	nbPacketsReceived 	0
statistic GeoRoutingNetwork50.node36.appl 	latency
field count 0
field mean nan
field stddev nan
field sum 0
field sqrsum 0
field min nan
field max nan
scalar GeoRoutingNetwork50.node36.batteryStats 	nominal 	18
attr unit  mW-s
scalar GeoRoutingNetwork50.node36.batteryStats 	total 	0.080080723250429
attr unit  mW-s
scalar GeoRoutingNetwork50.node36.batteryStats 	lifetime 	-1
attr unit  s
scalar GeoRoutingNetwork50.node36.batteryStats 	"Mean power consumption" 	1.8680861595066
attr unit  mW
scalar GeoRoutingNetwork50.node37.nic.mac 	nbTxFrames 	6
scalar GeoRoutingNetwork50.node37.nic.mac 	nbRxFrames 	2
scalar GeoRoutingNetwork50.node37.nic.mac 	nbDroppedFrames 	0
scalar GeoRoutingNetwork50.node37.nic.mac 	nbMissedAcks 	0
scalar GeoRoutingNetwork50.node37.nic.mac 	nbRecvdAcks 	0
scalar GeoRoutingNetwork50.node37.nic.mac 	nbTxAcks 	0
scalar GeoRoutingNetwork50.node37.nic.mac 	nbDuplicates 	0
scalar GeoRoutingNetwork50.node37.nic.mac 	meanBackoff 	0.002
scalar GeoRoutingNetwork50.node37.nic.mac 	nbBackoffs 	8
scalar GeoRoutingNetwork50.node37.nic.mac 	backoffDurations 	0.016
scalar GeoRoutingNetwork50.node37.nic.phy 	nbFramesWithInterference 	5
scalar GeoRoutingNetwork50.node37.nic.phy 	nbFramesWithoutInterference 	15
[...]
scalar GeoRoutingNetwork50.node41.tranl 	"nbAggrPktSentDown " 	0
scalar GeoRoutingNetwork50.node41.appl 	"activity duration" 	-1
attr unit  s
scalar GeoRoutingNetwork50.node41.appl 	firstPacketGeneration 	-1
attr unit  s
scalar GeoRoutingNetwork50.node41.appl 	lastPacketReception 	-2
attr unit  s
scalar GeoRoutingNetwork50.node41.appl 	nbPacketsSent 	0
scalar GeoRoutingNetwork50.node41.appl 	nbPacketsReceived 	0
statistic GeoRoutingNetwork50.node41.appl 	latency
field count 0
field mean nan
field stddev nan
field sum 0
field sqrsum 0
field min nan
field max nan
scalar GeoRoutingNetwork50.node41.batteryStats 	nominal 	18
attr unit  mW-s
scalar GeoRoutingNetwork50.node41.batteryStats 	total 	0.080080723250429
attr unit  mW-s
scalar GeoRoutingNetwork50.node41.batteryStats 	lifetime 	-1
attr unit  s
scalar GeoRoutingNetwork50.node41.batteryStats 	"Mean power consumption" 	1.8680861595066
attr unit  mW
scalar GeoRoutingNetwork50.node42.nic.mac 	nbTxFrames 	6
scalar GeoRoutingNetwork50.node42.nic.mac 	nbRxFrames 	5
scalar GeoRoutingNetwork50.node42.nic.mac 	nbDroppedFrames 	0
scalar GeoRoutingNetwork50.node42.nic.mac 	nbMissedAcks 	0
scalar GeoRoutingNetwork50.node42.nic.mac 	nbRecvdAcks 	0
scalar GeoRoutingNetwork50.node42.nic.mac 	nbTxAcks 	0
scalar GeoRoutingNetwork50.node42.nic.mac 	nbDuplicates 	0
scalar GeoRoutingNetwork50.node42.nic.mac 	meanBackoff 	0.0010514285714286
scalar GeoRoutingNetwork50.node42.nic.mac 	nbBackoffs 	7
scalar GeoRoutingNetwork50.node42.nic.mac 	backoffDurations 	0.00736
scalar GeoRoutingNetwork50.node42.nic.phy 	nbFramesWithInterference 	0
scalar GeoRoutingNetwork50.node42.nic.phy 	nbFramesWithoutInterference 	9
scalar GeoRoutingNetwork50.node42.nic.phy 	nbFramesWithInterferencePartial 	0
scalar GeoRoutingNetwork50.node42.nic.phy 	nbFramesWithoutInterferencePartial 	0
scalar GeoRoutingNetwork50.node42.nic.phy 	nbFramesWithInterferenceDropped 	0
scalar GeoRoutingNetwork50.node42.nic.phy 	nbFramesWithoutInterferenceDropped 	0
scalar GeoRoutingNetwork50.node42.netwl 	"Remaining Power" 	17.95202176
scalar GeoRoutingNetwork50.node42.tranl 	nbAggrPktReceived 	0
scalar GeoRoutingNetwork50.node42.tranl 	"nbAggrPktSentDown " 	0
scalar GeoRoutingNetwork50.node42.appl 	"activity duration" 	-1
attr unit  s
scalar GeoRoutingNetwork50.node42.appl 	firstPacketGeneration 	-1
attr unit  s
scalar GeoRoutingNetwork50.node42.appl 	lastPacketReception 	-2
attr unit  s
scalar GeoRoutingNetwork50.node42.appl 	nbPacketsSent 	0
scalar GeoRoutingNetwork50.node42.appl 	nbPacketsReceived 	0
statistic GeoRoutingNetwork50.node42.appl 	latency
field count 0
field mean nan
field stddev nan
field sum 0
field sqrsum 0
field min nan
field max nan
scalar GeoRoutingNetwork50.node42.batteryStats 	nominal 	18
attr unit  mW-s
scalar GeoRoutingNetwork50.node42.batteryStats 	total 	0.080080723250429
attr unit  mW-s
scalar GeoRoutingNetwork50.node42.batteryStats 	lifetime 	-1
attr unit  s
scalar GeoRoutingNetwork50.node42.batteryStats 	"Mean power consumption" 	1.8680861595066
attr unit  mW
scalar GeoRoutingNetwork50.node43.nic.mac 	nbTxFrames 	6
scalar GeoRoutingNetwork50.node43.nic.mac 	nbRxFrames 	0
scalar GeoRoutingNetwork50.node43.nic.mac 	nbDroppedFrames 	0
scalar GeoRoutingNetwork50.node43.nic.mac 	nbMissedAcks 	0
scalar GeoRoutingNetwork50.node43.nic.mac 	nbRecvdAcks 	0
scalar GeoRoutingNetwork50.node43.nic.mac 	nbTxAcks 	0
scalar GeoRoutingNetwork50.node43.nic.mac 	nbDuplicates 	0
scalar GeoRoutingNetwork50.node43.nic.mac 	meanBackoff 	0.0017777777777778
scalar GeoRoutingNetwork50.node43.nic.mac 	nbBackoffs 	9
scalar GeoRoutingNetwork50.node43.nic.mac 	backoffDurations 	0.016
scalar GeoRoutingNetwork50.node43.nic.phy 	nbFramesWithInterference 	1
scalar GeoRoutingNetwork50.node43.nic.phy 	nbFramesWithoutInterference 	10
scalar GeoRoutingNetwork50.node43.nic.phy 	nbFramesWithInterferencePartial 	0
scalar GeoRoutingNetwork50.node43.nic.phy 	nbFramesWithoutInterferencePartial 	0
scalar GeoRoutingNetwork50.node43.nic.phy 	nbFramesWithInterferenceDropped 	0
scalar GeoRoutingNetwork50.node43.nic.phy 	nbFramesWithoutInterferenceDropped 	0
scalar GeoRoutingNetwork50.node43.netwl 	"Remaining Power" 	17.92855936
scalar GeoRoutingNetwork50.node43.tranl 	nbAggrPktReceived 	0
scalar GeoRoutingNetwork50.node43.tranl 	"nbAggrPktSentDown " 	0
scalar GeoRoutingNetwork50.node43.appl 	"activity duration" 	-1
attr unit  s
scalar GeoRoutingNetwork50.node43.appl 	firstPacketGeneration 	-1
attr unit  s
scalar GeoRoutingNetwork50.node43.appl 	lastPacketReception 	-2
attr unit  s
scalar GeoRoutingNetwork50.node43.appl 	nbPacketsSent 	0
scalar GeoRoutingNetwork50.node43.appl 	nbPacketsReceived 	0
statistic GeoRoutingNetwork50.node43.appl 	latency
field count 0
field mean nan
field stddev nan
field sum 0
field sqrsum 0
field min nan
field max nan
scalar GeoRoutingNetwork50.node43.batteryStats 	nominal 	18
attr unit  mW-s
scalar GeoRoutingNetwork50.node43.batteryStats 	total 	0.080080723250433
attr unit  mW-s
scalar GeoRoutingNetwork50.node43.batteryStats 	lifetime 	-1
attr unit  s
scalar GeoRoutingNetwork50.node43.batteryStats 	"Mean power consumption" 	1.8680861595067
attr unit  mW
scalar GeoRoutingNetwork50.node44.nic.mac 	nbTxFrames 	6
scalar GeoRoutingNetwork50.node44.nic.mac 	nbRxFrames 	5
scalar GeoRoutingNetwork50.node44.nic.mac 	nbDroppedFrames 	0
scalar GeoRoutingNetwork50.node44.nic.mac 	nbMissedAcks 	0
scalar GeoRoutingNetwork50.node44.nic.mac 	nbRecvdAcks 	0
scalar GeoRoutingNetwork50.node44.nic.mac 	nbTxAcks 	0
scalar GeoRoutingNetwork50.node44.nic.mac 	nbDuplicates 	0
scalar GeoRoutingNetwork50.node44.nic.mac 	meanBackoff 	0.0013257142857143
scalar GeoRoutingNetwork50.node44.nic.mac 	nbBackoffs 	7
scalar GeoRoutingNetwork50.node44.nic.mac 	backoffDurations 	0.00928
scalar GeoRoutingNetwork50.node44.nic.phy 	nbFramesWithInterference 	2
scalar GeoRoutingNetwork50.node44.nic.phy 	nbFramesWithoutInterference 	9
scalar GeoRoutingNetwork50.node44.nic.phy 	nbFramesWithInterferencePartial 	0
scalar GeoRoutingNetwork50.node44.nic.phy 	nbFramesWithoutInterferencePartial 	0
scalar GeoRoutingNetwork50.node44.nic.phy 	nbFramesWithInterferenceDropped 	1
scalar GeoRoutingNetwork50.node44.nic.phy 	nbFramesWithoutInterferenceDropped 	0
scalar GeoRoutingNetwork50.node44.netwl 	"Remaining Power" 	17.94841216
scalar GeoRoutingNetwork50.node44.tranl 	nbAggrPktReceived 	0
scalar GeoRoutingNetwork50.node44.tranl 	"nbAggrPktSentDown " 	0
scalar GeoRoutingNetwork50.node44.appl 	"activity duration" 	-1
attr unit  s
scalar GeoRoutingNetwork50.node44.appl 	firstPacketGeneration 	-1
attr unit  s
scalar GeoRoutingNetwork50.node44.appl 	lastPacketReception 	-2
attr unit  s
scalar GeoRoutingNetwork50.node44.appl 	nbPacketsSent 	0
scalar GeoRoutingNetwork50.node44.appl 	nbPacketsReceived 	0
statistic GeoRoutingNetwork50.node44.appl 	latency
field count 0
field mean nan
field stddev nan
field sum 0
field sqrsum 0
field min nan
field max nan
scalar GeoRoutingNetwork50.node44.batteryStats 	nominal 	18
attr unit  mW-s
scalar GeoRoutingNetwork50.node44.batteryStats 	total 	0.080080723250425
attr unit  mW-s
scalar GeoRoutingNetwork50.node44.batteryStats 	lifetime 	-1
attr unit  s
scalar GeoRoutingNetwork50.node44.batteryStats 	"Mean power consumption" 	1.8680861595065
attr unit  mW
scalar GeoRoutingNetwork50.node45.nic.mac 	nbTxFrames 	4
scalar GeoRoutingNetwork50.node45.nic.mac 	nbRxFrames 	0
scalar GeoRoutingNetwork50.node45.nic.mac 	nbDroppedFrames 	0
scalar GeoRoutingNetwork50.node45.nic.mac 	nbMissedAcks 	0
scalar GeoRoutingNetwork50.node45.nic.mac 	nbRecvdAcks 	0
scalar GeoRoutingNetwork50.node45.nic.mac 	nbTxAcks 	0
scalar GeoRoutingNetwork50.node45.nic.mac 	nbDuplicates 	0
scalar GeoRoutingNetwork50.node45.nic.mac 	meanBackoff 	0.0028444444444444
scalar GeoRoutingNetwork50.node45.nic.mac 	nbBackoffs 	9
scalar GeoRoutingNetwork50.node45.nic.mac 	backoffDurations 	0.0256
scalar GeoRoutingNetwork50.node45.nic.phy 	nbFramesWithInterference 	1
scalar GeoRoutingNetwork50.node45.nic.phy 	nbFramesWithoutInterference 	11
scalar GeoRoutingNetwork50.node45.nic.phy 	nbFramesWithInterferencePartial 	1
scalar GeoRoutingNetwork50.node45.nic.phy 	nbFramesWithoutInterferencePartial 	0
scalar GeoRoutingNetwork50.node45.nic.phy 	nbFramesWithInterferenceDropped 	1
scalar GeoRoutingNetwork50.node45.nic.phy 	nbFramesWithoutInterferenceDropped 	0
scalar GeoRoutingNetwork50.node45.netwl 	"Remaining Power" 	17.93596928
scalar GeoRoutingNetwork50.node45.tranl 	nbAggrPktReceived 	0
scalar GeoRoutingNetwork50.node45.tranl 	"nbAggrPktSentDown " 	0
scalar GeoRoutingNetwork50.node45.appl 	"activity duration" 	-1
attr unit  s
scalar GeoRoutingNetwork50.node45.appl 	firstPacketGeneration 	-1
attr unit  s
scalar GeoRoutingNetwork50.node45.appl 	lastPacketReception 	-2
attr unit  s
scalar GeoRoutingNetwork50.node45.appl 	nbPacketsSent 	0
scalar GeoRoutingNetwork50.node45.appl 	nbPacketsReceived 	0
statistic GeoRoutingNetwork50.node45.appl 	latency
field count 0
field mean nan
field stddev nan
field sum 0
field sqrsum 0
field min nan
field max nan
scalar GeoRoutingNetwork50.node45.batteryStats 	nominal 	18
attr unit  mW-s
scalar GeoRoutingNetwork50.node45.batteryStats 	total 	0.080250963250432
attr unit  mW-s
scalar GeoRoutingNetwork50.node45.batteryStats 	lifetime 	-1
attr unit  s
scalar GeoRoutingNetwork50.node45.batteryStats 	"Mean power consumption" 	1.872057439671
attr unit  mW
scalar GeoRoutingNetwork50.node46.nic.mac 	nbTxFrames 	3
scalar GeoRoutingNetwork50.node46.nic.mac 	nbRxFrames 	0
scalar GeoRoutingNetwork50.node46.nic.mac 	nbDroppedFrames 	0
scalar GeoRoutingNetwork50.node46.nic.mac 	nbMissedAcks 	0
scalar GeoRoutingNetwork50.node46.nic.mac 	nbRecvdAcks 	0
scalar GeoRoutingNetwork50.node46.nic.mac 	nbTxAcks 	0
scalar GeoRoutingNetwork50.node46.nic.mac 	nbDuplicates 	0
scalar GeoRoutingNetwork50.node46.nic.mac 	meanBackoff 	0.00336
scalar GeoRoutingNetwork50.node46.nic.mac 	nbBackoffs 	8
scalar GeoRoutingNetwork50.node46.nic.mac 	backoffDurations 	0.02688
scalar GeoRoutingNetwork50.node46.nic.phy 	nbFramesWithInterference 	0
scalar GeoRoutingNetwork50.node46.nic.phy 	nbFramesWithoutInterference 	10
scalar GeoRoutingNetwork50.node46.nic.phy 	nbFramesWithInterferencePartial 	0
scalar GeoRoutingNetwork50.node46.nic.phy 	nbFramesWithoutInterferencePartial 	0
scalar GeoRoutingNetwork50.node46.nic.phy 	nbFramesWithInterferenceDropped 	0
scalar GeoRoutingNetwork50.node46.nic.phy 	nbFramesWithoutInterferenceDropped 	0
scalar GeoRoutingNetwork50.node46.netwl 	"Remaining Power" 	17.91994176
scalar GeoRoutingNetwork50.node46.tranl 	nbAggrPktReceived 	0
scalar GeoRoutingNetwork50.node46.tranl 	"nbAggrPktSentDown " 	0
scalar GeoRoutingNetwork50.node46.appl 	"activity duration" 	-1
attr unit  s
scalar GeoRoutingNetwork50.node46.appl 	firstPacketGeneration 	-1
attr unit  s
scalar GeoRoutingNetwork50.node46.appl 	lastPacketReception 	-2
attr unit  s
scalar GeoRoutingNetwork50.node46.appl 	nbPacketsSent 	0
scalar GeoRoutingNetwork50.node46.appl 	nbPacketsReceived 	0
statistic GeoRoutingNetwork50.node46.appl 	latency
field count 0
field mean nan
field stddev nan
field sum 0
field sqrsum 0
field min nan
field max nan
scalar GeoRoutingNetwork50.node46.batteryStats 	nominal 	18
attr unit  mW-s
scalar GeoRoutingNetwork50.node46.batteryStats 	total 	0.080336083250437
attr unit  mW-s
scalar GeoRoutingNetwork50.node46.batteryStats 	lifetime 	-1
attr unit  s
scalar GeoRoutingNetwork50.node46.batteryStats 	"Mean power consumption" 	1.8740430797533
attr unit  mW
scalar GeoRoutingNetwork50.node47.nic.mac 	nbTxFrames 	3
scalar GeoRoutingNetwork50.node47.nic.mac 	nbRxFrames 	0
scalar GeoRoutingNetwork50.node47.nic.mac 	nbDroppedFrames 	0
scalar GeoRoutingNetwork50.node47.nic.mac 	nbMissedAcks 	0
scalar GeoRoutingNetwork50.node47.nic.mac 	nbRecvdAcks 	0
scalar GeoRoutingNetwork50.node47.nic.mac 	nbTxAcks 	0
scalar GeoRoutingNetwork50.node47.nic.mac 	nbDuplicates 	0
scalar GeoRoutingNetwork50.node47.nic.mac 	meanBackoff 	0.0025955555555556
scalar GeoRoutingNetwork50.node47.nic.mac 	nbBackoffs 	9
scalar GeoRoutingNetwork50.node47.nic.mac 	backoffDurations 	0.02336
scalar GeoRoutingNetwork50.node47.nic.phy 	nbFramesWithInterference 	3
scalar GeoRoutingNetwork50.node47.nic.phy 	nbFramesWithoutInterference 	14
scalar GeoRoutingNetwork50.node47.nic.phy 	nbFramesWithInterferencePartial 	0
scalar GeoRoutingNetwork50.node47.nic.phy 	nbFramesWithoutInterferencePartial 	0
scalar GeoRoutingNetwork50.node47.nic.phy 	nbFramesWithInterferenceDropped 	1
scalar GeoRoutingNetwork50.node47.nic.phy 	nbFramesWithoutInterferenceDropped 	0
scalar GeoRoutingNetwork50.node47.netwl 	"Remaining Power" 	17.92294976
scalar GeoRoutingNetwork50.node47.tranl 	nbAggrPktReceived 	0
scalar GeoRoutingNetwork50.node47.tranl 	"nbAggrPktSentDown " 	0
scalar GeoRoutingNetwork50.node47.appl 	"activity duration" 	-1
attr unit  s
scalar GeoRoutingNetwork50.node47.appl 	firstPacketGeneration 	-1
attr unit  s
scalar GeoRoutingNetwork50.node47.appl 	lastPacketReception 	-2
attr unit  s
scalar GeoRoutingNetwork50.node47.appl 	nbPacketsSent 	0
scalar GeoRoutingNetwork50.node47.appl 	nbPacketsReceived 	0
statistic GeoRoutingNetwork50.node47.appl 	latency
field count 0
field mean nan
field stddev nan
field sum 0
field sqrsum 0
field min nan
field max nan
scalar GeoRoutingNetwork50.node47.batteryStats 	nominal 	18
attr unit  mW-s
scalar GeoRoutingNetwork50.node47.batteryStats 	total 	0.080336083250433
attr unit  mW-s
scalar GeoRoutingNetwork50.node47.batteryStats 	lifetime 	-1
attr unit  s
scalar GeoRoutingNetwork50.node47.batteryStats 	"Mean power consumption" 	1.8740430797533
attr unit  mW
scalar GeoRoutingNetwork50.node48.nic.mac 	nbTxFrames 	6
scalar GeoRoutingNetwork50.node48.nic.mac 	nbRxFrames 	2
scalar GeoRoutingNetwork50.node48.nic.mac 	nbDroppedFrames 	0
scalar GeoRoutingNetwork50.node48.nic.mac 	nbMissedAcks 	0
scalar GeoRoutingNetwork50.node48.nic.mac 	nbRecvdAcks 	0
scalar GeoRoutingNetwork50.node48.nic.mac 	nbTxAcks 	0
scalar GeoRoutingNetwork50.node48.nic.mac 	nbDuplicates 	0
scalar GeoRoutingNetwork50.node48.nic.mac 	meanBackoff 	0.0014577777777778
scalar GeoRoutingNetwork50.node48.nic.mac 	nbBackoffs 	9
scalar GeoRoutingNetwork50.node48.nic.mac 	backoffDurations 	0.01312
scalar GeoRoutingNetwork50.node48.nic.phy 	nbFramesWithInterference 	5
scalar GeoRoutingNetwork50.node48.nic.phy 	nbFramesWithoutInterference 	10
scalar GeoRoutingNetwork50.node48.nic.phy 	nbFramesWithInterferencePartial 	0
scalar GeoRoutingNetwork50.node48.nic.phy 	nbFramesWithoutInterferencePartial 	0
scalar GeoRoutingNetwork50.node48.nic.phy 	nbFramesWithInterferenceDropped 	2
scalar GeoRoutingNetwork50.node48.nic.phy 	nbFramesWithoutInterferenceDropped 	0
scalar GeoRoutingNetwork50.node48.netwl 	"Remaining Power" 	17.93397376
scalar GeoRoutingNetwork50.node48.tranl 	nbAggrPktReceived 	0
scalar GeoRoutingNetwork50.node48.tranl 	"nbAggrPktSentDown " 	0
scalar GeoRoutingNetwork50.node48.appl 	"activity duration" 	-1
attr unit  s
scalar GeoRoutingNetwork50.node48.appl 	firstPacketGeneration 	-1
attr unit  s
scalar GeoRoutingNetwork50.node48.appl 	lastPacketReception 	-2
attr unit  s
scalar GeoRoutingNetwork50.node48.appl 	nbPacketsSent 	0
scalar GeoRoutingNetwork50.node48.appl 	nbPacketsReceived 	0
statistic GeoRoutingNetwork50.node48.appl 	latency
field count 0
field mean nan
field stddev nan
field sum 0
field sqrsum 0
field min nan
field max nan
scalar GeoRoutingNetwork50.node48.batteryStats 	nominal 	18
attr unit  mW-s
scalar GeoRoutingNetwork50.node48.batteryStats 	total 	0.080080723250429
attr unit  mW-s
scalar GeoRoutingNetwork50.node48.batteryStats 	lifetime 	-1
attr unit  s
scalar GeoRoutingNetwork50.node48.batteryStats 	"Mean power consumption" 	1.8680861595066
attr unit  mW
scalar GeoRoutingNetwork50.node49.nic.mac 	nbTxFrames 	6
scalar GeoRoutingNetwork50.node49.nic.mac 	nbRxFrames 	2
scalar GeoRoutingNetwork50.node49.nic.mac 	nbDroppedFrames 	0
scalar GeoRoutingNetwork50.node49.nic.mac 	nbMissedAcks 	0
scalar GeoRoutingNetwork50.node49.nic.mac 	nbRecvdAcks 	0
scalar GeoRoutingNetwork50.node49.nic.mac 	nbTxAcks 	0
scalar GeoRoutingNetwork50.node49.nic.mac 	nbDuplicates 	0
scalar GeoRoutingNetwork50.node49.nic.mac 	meanBackoff 	0.001248
scalar GeoRoutingNetwork50.node49.nic.mac 	nbBackoffs 	10
scalar GeoRoutingNetwork50.node49.nic.mac 	backoffDurations 	0.01248
scalar GeoRoutingNetwork50.node49.nic.phy 	nbFramesWithInterference 	1
scalar GeoRoutingNetwork50.node49.nic.phy 	nbFramesWithoutInterference 	14
scalar GeoRoutingNetwork50.node49.nic.phy 	nbFramesWithInterferencePartial 	0
scalar GeoRoutingNetwork50.node49.nic.phy 	nbFramesWithoutInterferencePartial 	0
scalar GeoRoutingNetwork50.node49.nic.phy 	nbFramesWithInterferenceDropped 	0
scalar GeoRoutingNetwork50.node49.nic.phy 	nbFramesWithoutInterferenceDropped 	0
scalar GeoRoutingNetwork50.node49.netwl 	"Remaining Power" 	17.93156736
scalar GeoRoutingNetwork50.node49.tranl 	nbAggrPktReceived 	0
scalar GeoRoutingNetwork50.node49.tranl 	"nbAggrPktSentDown " 	0
scalar GeoRoutingNetwork50.node49.appl 	"activity duration" 	-1
attr unit  s
scalar GeoRoutingNetwork50.node49.appl 	firstPacketGeneration 	-1
attr unit  s
scalar GeoRoutingNetwork50.node49.appl 	lastPacketReception 	-2
attr unit  s
scalar GeoRoutingNetwork50.node49.appl 	nbPacketsSent 	0
scalar GeoRoutingNetwork50.node49.appl 	nbPacketsReceived 	0
statistic GeoRoutingNetwork50.node49.appl 	latency
field count 0
field mean nan
field stddev nan
field sum 0
field sqrsum 0
field min nan
field max nan
scalar GeoRoutingNetwork50.node49.batteryStats 	nominal 	18
attr unit  mW-s
scalar GeoRoutingNetwork50.node49.batteryStats 	total 	0.080080723250425
attr unit  mW-s
scalar GeoRoutingNetwork50.node49.batteryStats 	lifetime 	-1
attr unit  s
scalar GeoRoutingNetwork50.node49.batteryStats 	"Mean power consumption" 	1.8680861595065
attr unit  mW
scalar GeoRoutingNetwork50.node50.nic.mac 	nbTxFrames 	6
scalar GeoRoutingNetwork50.node50.nic.mac 	nbRxFrames 	5
scalar GeoRoutingNetwork50.node50.nic.mac 	nbDroppedFrames 	0
scalar GeoRoutingNetwork50.node50.nic.mac 	nbMissedAcks 	0
scalar GeoRoutingNetwork50.node50.nic.mac 	nbRecvdAcks 	0
scalar GeoRoutingNetwork50.node50.nic.mac 	nbTxAcks 	0
scalar GeoRoutingNetwork50.node50.nic.mac 	nbDuplicates 	0
scalar GeoRoutingNetwork50.node50.nic.mac 	meanBackoff 	0.0014628571428571
scalar GeoRoutingNetwork50.node50.nic.mac 	nbBackoffs 	7
scalar GeoRoutingNetwork50.node50.nic.mac 	backoffDurations 	0.01024
scalar GeoRoutingNetwork50.node50.nic.phy 	nbFramesWithInterference 	2
scalar GeoRoutingNetwork50.node50.nic.phy 	nbFramesWithoutInterference 	11
scalar GeoRoutingNetwork50.node50.nic.phy 	nbFramesWithInterferencePartial 	0
scalar GeoRoutingNetwork50.node50.nic.phy 	nbFramesWithoutInterferencePartial 	0
scalar GeoRoutingNetwork50.node50.nic.phy 	nbFramesWithInterferenceDropped 	0
scalar GeoRoutingNetwork50.node50.nic.phy 	nbFramesWithoutInterferenceDropped 	0
scalar GeoRoutingNetwork50.node50.netwl 	"Remaining Power" 	17.94660736
scalar GeoRoutingNetwork50.node50.tranl 	nbAggrPktReceived 	0
scalar GeoRoutingNetwork50.node50.tranl 	"nbAggrPktSentDown " 	0
scalar GeoRoutingNetwork50.node50.appl 	"activity duration" 	-1
attr unit  s
scalar GeoRoutingNetwork50.node50.appl 	firstPacketGeneration 	-1
attr unit  s
scalar GeoRoutingNetwork50.node50.appl 	lastPacketReception 	-2
attr unit  s
scalar GeoRoutingNetwork50.node50.appl 	nbPacketsSent 	0
scalar GeoRoutingNetwork50.node50.appl 	nbPacketsReceived 	0
statistic GeoRoutingNetwork50.node50.appl 	latency
field count 0
field mean nan
field stddev nan
field sum 0
field sqrsum 0
field min nan
field max nan
scalar GeoRoutingNetwork50.node50.batteryStats 	nominal 	18
attr unit  mW-s
scalar GeoRoutingNetwork50.node50.batteryStats 	total 	0.080080723250429
attr unit  mW-s
scalar GeoRoutingNetwork50.node50.batteryStats 	lifetime 	-1
attr unit  s
scalar GeoRoutingNetwork50.node50.batteryStats 	"Mean power consumption" 	1.8680861595066
attr unit  mW
